
     RDKit          3D

  8  7  0  0  0  0  0  0  0  0999 V2000
    0.7289   -0.6310    0.0023 C   0  0  0  0  0  0  0  0  0  0  0  0
   -0.5501    0.0848    0.0264 N   0  0  0  0  0  0  0  0  0  0  0  0
   -1.5569   -0.6245    0.0328 O   0  0  0  0  0  0  0  0  0  0  0  0
   -0.5433    1.3141    0.0385 O   0  0  0  0  0  0  0  0  0  0  0  0
    1.8785    0.0306   -0.0063 C   0  0  0  0  0  0  0  0  0  0  0  0
    0.5914   -1.7035   -0.0066 H   0  0  0  0  0  0  0  0  0  0  0  0
    1.8900    1.1144    0.0044 H   0  0  0  0  0  0  0  0  0  0  0  0
    2.8190   -0.5078   -0.0241 H   0  0  0  0  0  0  0  0  0  0  0  0
  1  2  1  0
  1  5  2  0
  1  6  1  0
  2  3  2  0
  2  4  1  0
  5  7  1  0
  5  8  1  0
M  CHG  2   2   1   4  -1
M  END
