ACOWIY
  MatStudio         3D                             0

 15 15  0  0  0  0  0  0  0  0999 V2000
    3.6967    5.8677    8.1946 N   0  0  0  0  0  0  0  0  0  1
    3.1599    6.1642    8.7751 H   0  0  0  0  0  0  0  0  0  2
    3.3694    4.4429    7.9541 C   0  0  0  0  0  0  0  0  0  3
    2.9546    4.7733    6.5277 C   0  0  0  0  0  0  0  0  0  4
    4.1454    3.8470    8.0092 H   0  0  0  0  0  0  0  0  0  5
    3.3120    6.2302    6.8107 C   0  0  0  0  0  0  0  0  0  6
    4.0578    6.5641    6.2701 H   0  0  0  0  0  0  0  0  0  7
    2.5456    6.8390    6.7626 H   0  0  0  0  0  0  0  0  0  8
    3.7139    4.0772    5.4341 N   0  3  0  0  0  0  0  0  0  9
    4.0235    4.7264    4.4612 O   0  5  0  0  0  0  0  0  0 10
    3.9524    2.8942    5.6099 O   0  0  0  0  0  0  0  0  0 11
    1.4962    4.5461    6.2067 N   0  3  0  0  0  0  0  0  0 12
    1.2027    3.9296    5.2082 O   0  5  0  0  0  0  0  0  0 13
    0.7102    5.0290    6.9968 O   0  0  0  0  0  0  0  0  0 14
    2.6338    4.1101    8.5093 H   0  0  0  0  0  0  0  0  0 15
  2  1  1  0  0  0
  3  1  1  0  0  0
  4  3  1  0  0  0
  5  3  1  0  0  0
  6  4  1  0  0  0
  6  1  1  0  0  0
  7  6  1  0  0  0
  8  6  1  0  0  0
  9  4  1  0  0  0
 10  9  1  0  0  0
 11  9  2  0  0  0
 12  4  1  0  0  0
 13 12  1  0  0  0
 14 12  2  0  0  0
 15  3  1  0  0  0
M  END
