ACOWOE
  MatStudio         3D                             0

 17 17  0  0  0  0  0  0  0  0999 V2000
   10.4229    4.1915   -0.3043 O   0  0  0  0  0  0  0  0  0  1
    9.3729    3.5702   -0.3135 C   0  0  0  0  0  0  0  0  0  2
    8.5089    3.5666    0.6745 N   0  0  0  0  0  0  0  0  0  3
    9.0649    3.0532   -1.0650 H   0  0  0  0  0  0  0  0  0  4
    8.6400    4.1218    2.0221 C   0  0  0  0  0  0  0  0  0  5
    8.5729    5.1044    2.0566 H   0  0  0  0  0  0  0  0  0  6
    7.3674    3.3496    2.3860 C   0  0  0  0  0  0  0  0  0  7
    9.4501    3.7975    2.4708 H   0  0  0  0  0  0  0  0  0  8
    6.2015    4.2424    2.7139 N   0  3  0  0  0  0  0  0  0  9
    5.6983    4.1758    3.8089 O   0  5  0  0  0  0  0  0  0 10
    5.8701    5.0074    1.8375 O   0  0  0  0  0  0  0  0  0 11
    7.5005    2.3828    3.5272 N   0  3  0  0  0  0  0  0  0 12
    6.9476    1.3172    3.4286 O   0  5  0  0  0  0  0  0  0 13
    8.1694    2.7501    4.4736 O   0  0  0  0  0  0  0  0  0 14
    7.3389    2.7483    0.9751 C   0  0  0  0  0  0  0  0  0 15
    7.4904    1.8148    0.9772 H   0  0  0  0  0  0  0  0  0 16
    6.5206    2.9780    0.5065 H   0  0  0  0  0  0  0  0  0 17
  2  1  2  0  0  0
  3  2  1  0  0  0
  4  2  1  0  0  0
  5  3  1  0  0  0
  6  5  1  0  0  0
  7  5  1  0  0  0
  8  5  1  0  0  0
  9  7  1  0  0  0
 10  9  1  0  0  0
 11  9  2  0  0  0
 12  7  1  0  0  0
 13 12  1  0  0  0
 14 12  2  0  0  0
 15  3  1  0  0  0
 15  7  1  0  0  0
 16 15  1  0  0  0
 17 15  1  0  0  0
M  END
