AFEXEP
  MatStudio         3D                             0

 24 24  0  0  0  0  0  0  0  0999 V2000
    1.7922    8.8726    6.0566 N   0  0  0  0  0  0  0  0  0  1
    1.9936    8.0013    7.1380 C   0  0  0  0  0  0  0  0  0  2
    0.8670    7.4345    7.7152 C   0  0  0  0  0  0  0  0  0  3
    2.7014    9.3726    5.1796 C   0  0  0  0  0  0  0  0  0  4
    0.9880    9.1064    5.8341 H   0  0  0  0  0  0  0  0  0  5
    3.8923    9.0813    5.2288 O   0  0  0  0  0  0  0  0  0  6
    0.9695    6.6032    8.8015 C   0  0  0  0  0  0  0  0  0  7
    2.2162    6.3137    9.2948 C   0  0  0  0  0  0  0  0  0  8
    0.2080    6.2422    9.1958 H   0  0  0  0  0  0  0  0  0  9
    3.3497    6.8546    8.7433 C   0  0  0  0  0  0  0  0  0 10
    4.1844    6.6468    9.0949 H   0  0  0  0  0  0  0  0  0 11
    2.3421    5.4304   10.4567 N   0  3  0  0  0  0  0  0  0 12
    3.4444    5.1094   10.8231 O   0  0  0  0  0  0  0  0  0 13
    1.3268    5.0695   11.0257 O   0  5  0  0  0  0  0  0  0 14
    3.2462    7.7072    7.6668 C   0  0  0  0  0  0  0  0  0 15
    4.0097    8.0848    7.2957 H   0  0  0  0  0  0  0  0  0 16
    0.0273    7.6209    7.3595 H   0  0  0  0  0  0  0  0  0 17
    2.1147   10.2902    4.1497 C   0  0  0  0  0  0  0  0  0 18
    1.5631   10.9499    4.5989 H   0  0  0  0  0  0  0  0  0 19
    3.1388   11.0065    3.3111 C   0  0  0  0  0  0  0  0  0 20
    2.6946   11.5956    2.6968 H   0  0  0  0  0  0  0  0  0 21
    1.5386    9.7734    3.5655 H   0  0  0  0  0  0  0  0  0 22
    3.7197   11.5159    3.8805 H   0  0  0  0  0  0  0  0  0 23
    3.6562   10.3635    2.8203 H   0  0  0  0  0  0  0  0  0 24
  2  1  1  0  0  0
  3  2  2  0  0  0
  4  1  1  0  0  0
  5  1  1  0  0  0
  6  4  2  0  0  0
  7  3  1  0  0  0
  8  7  2  0  0  0
  9  7  1  0  0  0
 10  8  1  0  0  0
 11 10  1  0  0  0
 12  8  1  0  0  0
 13 12  2  0  0  0
 14 12  1  0  0  0
 15  2  1  0  0  0
 15 10  2  0  0  0
 16 15  1  0  0  0
 17  3  1  0  0  0
 18  4  1  0  0  0
 19 18  1  0  0  0
 20 18  1  0  0  0
 21 20  1  0  0  0
 22 18  1  0  0  0
 23 20  1  0  0  0
 24 20  1  0  0  0
M  END
