AFOVUP
  MatStudio         3D                             0

 22 22  0  0  0  0  0  0  0  0999 V2000
    3.6086    4.8154    8.7466 C   0  0  0  0  0  0  0  0  0  1
    4.1195    4.7097    9.5522 H   0  0  0  0  0  0  0  0  0  2
    2.6766    4.8884    8.9660 H   0  0  0  0  0  0  0  0  0  3
    3.8174    3.6480    7.8765 N   0  0  0  0  0  0  0  0  0  4
    3.4288    3.6575    6.5649 C   0  0  0  0  0  0  0  0  0  5
    2.7496    4.7541    5.9959 C   0  0  0  0  0  0  0  0  0  6
    4.4195    2.4532    8.4697 C   0  0  0  0  0  0  0  0  0  7
    2.5527    5.4921    6.5261 H   0  0  0  0  0  0  0  0  0  8
    3.7959    1.7246    8.4250 H   0  0  0  0  0  0  0  0  0  9
    5.2162    2.2227    7.9859 H   0  0  0  0  0  0  0  0  0 10
    3.7074    2.5568    5.7234 C   0  0  0  0  0  0  0  0  0 11
    4.1484    1.8134    6.0664 H   0  0  0  0  0  0  0  0  0 12
    4.6414    2.6276    9.3872 H   0  0  0  0  0  0  0  0  0 13
    2.3737    4.7551    4.6792 C   0  0  0  0  0  0  0  0  0 14
    3.8928    5.6095    8.2894 H   0  0  0  0  0  0  0  0  0 15
    2.6615    3.6649    3.8803 C   0  0  0  0  0  0  0  0  0 16
    2.2201    3.6692    2.5222 N   0  3  0  0  0  0  0  0  0 17
    1.6743    4.6515    2.0571 O   0  5  0  0  0  0  0  0  0 18
    2.4150    2.6498    1.8520 O   0  0  0  0  0  0  0  0  0 19
    1.9252    5.4879    4.3238 H   0  0  0  0  0  0  0  0  0 20
    3.3331    2.5758    4.4037 C   0  0  0  0  0  0  0  0  0 21
    3.5324    1.8515    3.8569 H   0  0  0  0  0  0  0  0  0 22
  2  1  1  0  0  0
  3  1  1  0  0  0
  4  1  1  0  0  0
  5  4  1  0  0  0
  6  5  2  0  0  0
  7  4  1  0  0  0
  8  6  1  0  0  0
  9  7  1  0  0  0
 10  7  1  0  0  0
 11  5  1  0  0  0
 12 11  1  0  0  0
 13  7  1  0  0  0
 14  6  1  0  0  0
 15  1  1  0  0  0
 16 14  2  0  0  0
 17 16  1  0  0  0
 18 17  1  0  0  0
 19 17  2  0  0  0
 20 14  1  0  0  0
 21 16  1  0  0  0
 21 11  2  0  0  0
 22 21  1  0  0  0
M  END
