BABBUB
  MatStudio         3D                             0

 15 15  0  0  0  0  0  0  0  0999 V2000
    0.9801    7.7376    5.0695 C   0  0  0  0  0  0  0  0  0  1
    1.5033    7.0993    4.0312 N   0  0  0  0  0  0  0  0  0  2
    1.4931    5.6528    4.2455 C   0  0  0  0  0  0  0  0  0  3
    0.6852    5.5054    5.5251 C   0  0  0  0  0  0  0  0  0  4
   -0.1843    5.1062    5.3437 H   0  0  0  0  0  0  0  0  0  5
    0.5397    6.8756    5.9721 N   0  0  0  0  0  0  0  0  0  6
    0.1358    7.1213    6.6453 H   0  0  0  0  0  0  0  0  0  7
    0.8360    9.0533    5.3526 N   0  0  0  0  0  0  0  0  0  8
    1.2798    9.9400    4.4521 N   0  3  0  0  0  0  0  0  0  9
    1.7996    9.6179    3.3756 O   0  5  0  0  0  0  0  0  0 10
    1.9204    7.4970    3.3645 H   0  0  0  0  0  0  0  0  0 11
    1.1207   11.1265    4.7644 O   0  0  0  0  0  0  0  0  0 12
    2.4247    5.3282    4.3616 H   0  0  0  0  0  0  0  0  0 13
    1.1105    5.2086    3.4499 H   0  0  0  0  0  0  0  0  0 14
    1.1057    4.9354    6.2036 H   0  0  0  0  0  0  0  0  0 15
  2  1  1  0  0  0
  3  2  1  0  0  0
  4  3  1  0  0  0
  5  4  1  0  0  0
  6  4  1  0  0  0
  6  1  1  0  0  0
  7  6  1  0  0  0
  8  1  2  0  0  0
  9  8  1  0  0  0
 10  9  1  0  0  0
 11  2  1  0  0  0
 12  9  2  0  0  0
 13  3  1  0  0  0
 14  3  1  0  0  0
 15  4  1  0  0  0
M  END
