BANFIG
  MatStudio         3D                             0

 20 20  0  0  0  0  0  0  0  0999 V2000
    1.5925    0.3249    3.9574 O   0  0  0  0  0  0  0  0  0  1
    1.4218    1.1138    4.8681 N   0  3  0  0  0  0  0  0  0  2
    1.7897    0.8981    6.0143 O   0  5  0  0  0  0  0  0  0  3
    0.7661    2.3975    4.5638 C   0  0  0  0  0  0  0  0  0  4
    0.7121    3.3472    5.5409 C   0  0  0  0  0  0  0  0  0  5
    0.1466    4.5620    5.2108 C   0  0  0  0  0  0  0  0  0  6
   -0.0369    5.2179    5.9210 H   0  0  0  0  0  0  0  0  0  7
    1.1130    3.1788    6.5875 H   0  0  0  0  0  0  0  0  0  8
    0.2796    2.5656    3.2783 C   0  0  0  0  0  0  0  0  0  9
   -0.3247    3.7788    2.9765 C   0  0  0  0  0  0  0  0  0 10
    0.3177    1.8107    2.5057 H   0  0  0  0  0  0  0  0  0 11
   -0.3912    4.7802    3.9391 C   0  0  0  0  0  0  0  0  0 12
   -0.7836    5.7667    3.6070 H   0  0  0  0  0  0  0  0  0 13
   -0.9291    4.0801    1.6333 C   0  0  0  0  0  0  0  0  0 14
   -1.4689    5.1680    1.4050 O   0  0  0  0  0  0  0  0  0 15
   -0.8777    3.1071    0.7079 N   0  0  0  0  0  0  0  0  0 16
   -0.4441    2.1511    0.8753 H   0  0  0  0  0  0  0  0  0 17
   -1.4992    3.2814   -0.5578 N   0  0  0  0  0  0  0  0  0 18
   -0.8949    3.8633   -1.1613 H   0  0  0  0  0  0  0  0  0 19
   -2.4652    3.6242   -0.5378 H   0  0  0  0  0  0  0  0  0 20
  2  1  2  0  0  0
  3  2  1  0  0  0
  4  2  1  0  0  0
  5  4  1  0  0  0
  6  5  2  0  0  0
  7  6  1  0  0  0
  8  5  1  0  0  0
  9  4  2  0  0  0
 10  9  1  0  0  0
 11  9  1  0  0  0
 12  6  1  0  0  0
 12 10  2  0  0  0
 13 12  1  0  0  0
 14 10  1  0  0  0
 15 14  2  0  0  0
 16 14  1  0  0  0
 17 16  1  0  0  0
 18 16  1  0  0  0
 19 18  1  0  0  0
 20 18  1  0  0  0
M  END
