BUXJAH
  MatStudio         3D                             0

 16 16  0  0  0  0  0  0  0  0999 V2000
    2.0212    4.6184    1.0492 C   0  0  0  0  0  0  0  0  0  1
    3.1206    3.7618    1.1874 C   0  0  0  0  0  0  0  0  0  2
    1.9054    5.4529   -0.1275 C   0  0  0  0  0  0  0  0  0  3
    4.1393    3.7539    0.1923 C   0  0  0  0  0  0  0  0  0  4
    1.0356    4.6723    2.0145 C   0  0  0  0  0  0  0  0  0  5
    0.3154    5.2516    1.9063 H   0  0  0  0  0  0  0  0  0  6
    1.1120    3.8705    3.1414 C   0  0  0  0  0  0  0  0  0  7
    2.1789    3.0148    3.2827 C   0  0  0  0  0  0  0  0  0  8
    2.2408    2.4743    4.0365 H   0  0  0  0  0  0  0  0  0  9
    0.4505    3.9102    3.7929 H   0  0  0  0  0  0  0  0  0 10
    4.9347    3.8501   -0.6314 N   0  0  0  0  0  0  0  0  0 11
    3.1525    2.9530    2.3188 C   0  0  0  0  0  0  0  0  0 12
    4.2182    1.9763    2.5003 N   0  3  0  0  0  0  0  0  0 13
    5.1387    1.9339    1.7064 O   0  0  0  0  0  0  0  0  0 14
    4.1725    1.1851    3.4189 O   0  5  0  0  0  0  0  0  0 15
    1.7415    6.0887   -0.9993 N   0  0  0  0  0  0  0  0  0 16
  2  1  2  0  0  0
  3  1  1  0  0  0
  4  2  1  0  0  0
  5  1  1  0  0  0
  6  5  1  0  0  0
  7  5  2  0  0  0
  8  7  1  0  0  0
  9  8  1  0  0  0
 10  7  1  0  0  0
 11  4  3  0  0  0
 12  8  2  0  0  0
 12  2  1  0  0  0
 13 12  1  0  0  0
 14 13  2  0  0  0
 15 13  1  0  0  0
 16  3  3  0  0  0
M  END
