CASYIG01
  MatStudio         3D                             0

 20 20  0  0  0  0  0  0  0  0999 V2000
    1.3573    1.0964   11.6207 O   0  0  0  0  0  0  0  0  0  1
    0.5748    1.2184   11.4071 H   0  0  0  0  0  0  0  0  0  2
    1.8431    2.2296   12.2890 C   0  0  0  0  0  0  0  0  0  3
    1.6983    3.0489   11.7705 H   0  0  0  0  0  0  0  0  0  4
    1.2683    2.3230   13.6238 N   0  0  0  0  0  0  0  0  0  5
    0.4961    2.6596   13.7998 H   0  0  0  0  0  0  0  0  0  6
    2.0998    1.8147   14.5409 C   0  0  0  0  0  0  0  0  0  7
    1.7633    1.5881   15.9098 C   0  0  0  0  0  0  0  0  0  8
    3.2608    1.5414   13.9794 N   0  0  0  0  0  0  0  0  0  9
    0.4813    1.9126   16.3988 N   0  3  0  0  0  0  0  0  0 10
   -0.3479    2.3629   15.6268 O   0  5  0  0  0  0  0  0  0 11
    3.9121    1.3253   14.4555 H   0  0  0  0  0  0  0  0  0 12
    2.6814    1.0263   16.8096 N   0  3  0  0  0  0  0  0  0 13
    2.3587    0.6446   17.9217 O   0  0  0  0  0  0  0  0  0 14
    3.8584    0.8916   16.4193 O   0  5  0  0  0  0  0  0  0 15
    3.3122    2.0067   12.5997 C   0  0  0  0  0  0  0  0  0 16
    4.0499    3.1950   12.5219 O   0  0  0  0  0  0  0  0  0 17
    4.6295    3.1197   11.9473 H   0  0  0  0  0  0  0  0  0 18
    3.6931    1.3208   12.0128 H   0  0  0  0  0  0  0  0  0 19
    0.2258    1.8245   17.5173 O   0  0  0  0  0  0  0  0  0 20
  2  1  1  0  0  0
  3  1  1  0  0  0
  4  3  1  0  0  0
  5  3  1  0  0  0
  6  5  1  0  0  0
  7  5  1  0  0  0
  8  7  2  0  0  0
  9  7  1  0  0  0
 10  8  1  0  0  0
 11 10  1  0  0  0
 12  9  1  0  0  0
 13  8  1  0  0  0
 14 13  2  0  0  0
 15 13  1  0  0  0
 16  9  1  0  0  0
 16  3  1  0  0  0
 17 16  1  0  0  0
 18 17  1  0  0  0
 19 16  1  0  0  0
 20 10  2  0  0  0
M  END
