CIFROY
  MatStudio         3D                             0

 10 10  0  0  0  0  0  0  0  0999 V2000
   10.1166    7.0036    0.3815 N   0  0  0  0  0  0  0  0  0  1
    9.2487    7.3051    1.3785 N   0  0  0  0  0  0  0  0  0  2
    9.6172    6.0410   -0.3758 C   0  0  0  0  0  0  0  0  0  3
   10.0744    5.5768   -1.1974 H   0  0  0  0  0  0  0  0  0  4
    8.2809    6.4647    1.1249 C   0  0  0  0  0  0  0  0  0  5
    7.0876    6.4312    1.9456 N   0  3  0  0  0  0  0  0  0  6
    8.4295    5.6643    0.0617 N   0  0  0  0  0  0  0  0  0  7
    6.1961    5.6732    1.6156 O   0  5  0  0  0  0  0  0  0  8
   10.9281    7.5321    0.2306 H   0  0  0  0  0  0  0  0  0  9
    7.0443    7.1768    2.9086 O   0  0  0  0  0  0  0  0  0 10
  1  2  1  0  0  0
  1  3  1  0  0  0
  1  9  1  0  0  0
  2  5  2  0  0  0
  3  4  1  0  0  0
  3  7  2  0  0  0
  5  6  1  0  0  0
  5  7  1  0  0  0
  6  8  1  0  0  0
  6 10  2  0  0  0
M  END
