CIWMEA10
  MatStudio         3D                             0

 17 17  0  0  0  0  0  0  0  0999 V2000
    3.1010    1.9895    3.5705 N   0  0  0  0  0  0  0  0  0  1
    2.5575    3.3592    3.7489 C   0  0  0  0  0  0  0  0  0  2
    2.6125    1.8337    2.1883 C   0  0  0  0  0  0  0  0  0  3
    3.3177    1.6390    1.5757 H   0  0  0  0  0  0  0  0  0  4
    2.2582    3.3370    2.2463 C   0  0  0  0  0  0  0  0  0  5
    3.0889    4.2416    1.3951 N   0  3  0  0  0  0  0  0  0  6
    3.3458    5.3343    1.8637 O   0  5  0  0  0  0  0  0  0  7
    3.4088    3.8321    0.3009 O   0  0  0  0  0  0  0  0  0  8
    2.9061    1.0471    4.5185 N   0  3  0  0  0  0  0  0  0  9
    2.8912    1.3953    5.6857 O   0  5  0  0  0  0  0  0  0 10
    2.8206   -0.1202    4.1208 O   0  0  0  0  0  0  0  0  0 11
    0.8187    3.6497    1.8852 N   0  3  0  0  0  0  0  0  0 12
    0.5957    4.5053    1.0533 O   0  5  0  0  0  0  0  0  0 13
    1.6649    3.3214    4.3164 H   0  0  0  0  0  0  0  0  0 14
    1.8139    1.3419    2.1195 H   0  0  0  0  0  0  0  0  0 15
    3.1474    3.8800    3.9811 H   0  0  0  0  0  0  0  0  0 16
   -0.0206    2.9731    2.4634 O   0  0  0  0  0  0  0  0  0 17
  2  1  1  0  0  0
  3  1  1  0  0  0
  4  3  1  0  0  0
  5  3  1  0  0  0
  5  2  1  0  0  0
  6  5  1  0  0  0
  7  6  1  0  0  0
  8  6  2  0  0  0
  9  1  1  0  0  0
 10  9  1  0  0  0
 11  9  2  0  0  0
 12  5  1  0  0  0
 13 12  1  0  0  0
 14  2  1  0  0  0
 15  3  1  0  0  0
 16  2  1  0  0  0
 17 12  2  0  0  0
M  END
