CUZDEG
  MatStudio         3D                             0

 18 18  0  0  0  0  0  0  0  0999 V2000
    0.0425    3.3297    5.0825 O   0  0  0  0  0  0  0  0  0  1
    0.4985    2.4266    4.3885 N   0  3  0  0  0  0  0  0  0  2
    0.5087    1.2694    4.7759 O   0  5  0  0  0  0  0  0  0  3
    1.0185    2.7258    3.0662 C   0  0  0  0  0  0  0  0  0  4
    1.1672    4.0737    2.6244 C   0  0  0  0  0  0  0  0  0  5
    0.8585    5.1398    3.3731 N   0  0  0  0  0  0  0  0  0  6
    1.7015    4.1727    1.3029 C   0  0  0  0  0  0  0  0  0  7
    1.9470    5.4754    0.6939 N   0  3  0  0  0  0  0  0  0  8
    1.6149    6.4966    1.2775 O   0  0  0  0  0  0  0  0  0  9
    2.4918    5.5153   -0.3855 O   0  5  0  0  0  0  0  0  0 10
    1.3370    1.6274    2.2779 C   0  0  0  0  0  0  0  0  0 11
    1.8408    1.7999    1.0079 C   0  0  0  0  0  0  0  0  0 12
    2.0219    3.0788    0.5294 C   0  0  0  0  0  0  0  0  0 13
    1.2086    0.7487    2.6176 H   0  0  0  0  0  0  0  0  0 14
    2.0595    1.0537    0.4772 H   0  0  0  0  0  0  0  0  0 15
    2.3796    3.1888   -0.3398 H   0  0  0  0  0  0  0  0  0 16
    0.3163    4.9358    4.1468 H   0  0  0  0  0  0  0  0  0 17
    0.9413    5.9063    2.8861 H   0  0  0  0  0  0  0  0  0 18
  2  1  2  0  0  0
  3  2  1  0  0  0
  4  2  1  0  0  0
  5  4  2  0  0  0
  6  5  1  0  0  0
  7  5  1  0  0  0
  8  7  1  0  0  0
  9  8  2  0  0  0
 10  8  1  0  0  0
 11  4  1  0  0  0
 12 11  2  0  0  0
 13 12  1  0  0  0
 13  7  2  0  0  0
 14 11  1  0  0  0
 15 12  1  0  0  0
 16 13  1  0  0  0
 17  6  1  0  0  0
 18  6  1  0  0  0
M  END
