CUZMOZ
  MatStudio         3D                             0

 14 14  0  0  0  0  0  0  0  0999 V2000
    1.2481    0.9883    1.5891 C   0  0  0  0  0  0  0  0  0  1
    1.4180    2.4278    1.5891 N   0  0  0  0  0  0  0  0  0  2
    0.3438    3.2210    1.5891 N   0  0  0  0  0  0  0  0  0  3
    0.8636    4.4328    1.5891 C   0  0  0  0  0  0  0  0  0  4
   -0.0179    5.5775    1.5891 N   0  3  0  0  0  0  0  0  0  5
   -1.2170    5.4056    1.5891 O   0  5  0  0  0  0  0  0  0  6
    0.5022    6.6767    1.5891 O   0  0  0  0  0  0  0  0  0  7
    2.5667    3.1256    1.5891 C   0  0  0  0  0  0  0  0  0  8
    2.2473    4.4457    1.5891 C   0  0  0  0  0  0  0  0  0  9
    2.8429    5.2123    1.5891 H   0  0  0  0  0  0  0  0  0 10
    3.3974    2.7212    1.5891 H   0  0  0  0  0  0  0  0  0 11
    2.1330    0.5835    1.5891 H   0  0  0  0  0  0  0  0  0 12
    0.7514    0.7072    0.8002 H   0  0  0  0  0  0  0  0  0 13
    0.7514    0.7072    2.3779 H   0  0  0  0  0  0  0  0  0 14
  1  2  1  0  0  0
  1 12  1  0  0  0
  1 13  1  0  0  0
  1 14  1  0  0  0
  2  3  1  0  0  0
  2  8  1  0  0  0
  3  4  2  0  0  0
  4  5  1  0  0  0
  4  9  1  0  0  0
  5  6  1  0  0  0
  5  7  2  0  0  0
  8  9  2  0  0  0
  8 11  1  0  0  0
  9 10  1  0  0  0
M  END
