DATGEL
  MatStudio         3D                             0

 22 22  0  0  0  0  0  0  0  0999 V2000
    5.1299    6.9909   -0.9270 C   0  0  0  0  0  0  0  0  0  1
    5.1171    7.0551   -2.3484 C   0  0  0  0  0  0  0  0  0  2
    5.0545    5.8182   -3.0694 C   0  0  0  0  0  0  0  0  0  3
    4.9751    4.6159   -2.3809 C   0  0  0  0  0  0  0  0  0  4
    4.9982    4.5980   -0.9641 C   0  0  0  0  0  0  0  0  0  5
    4.9593    3.7861   -0.5116 H   0  0  0  0  0  0  0  0  0  6
    4.8505    3.2972   -3.1055 C   0  0  0  0  0  0  0  0  0  7
    5.6526    3.1305   -3.6070 H   0  0  0  0  0  0  0  0  0  8
    4.1004    3.3293   -3.7035 H   0  0  0  0  0  0  0  0  0  9
    5.0763    5.7634   -0.2570 C   0  0  0  0  0  0  0  0  0 10
    5.0939    5.7417    0.6726 H   0  0  0  0  0  0  0  0  0 11
    5.1670    8.1768   -0.0994 N   0  3  0  0  0  0  0  0  0 12
    5.2244    9.3032   -0.6194 O   0  5  0  0  0  0  0  0  0 13
    5.1265    8.0369    1.1335 O   0  0  0  0  0  0  0  0  0 14
    5.1440    8.2232   -3.0427 N   0  0  0  0  0  0  0  0  0 15
    5.1705    8.9850   -2.6157 H   0  0  0  0  0  0  0  0  0 16
    5.1346    8.2124   -3.9167 H   0  0  0  0  0  0  0  0  0 17
    5.0646    5.8641   -4.5806 C   0  0  0  0  0  0  0  0  0 18
    4.2297    6.2184   -4.8950 H   0  0  0  0  0  0  0  0  0 19
    4.7210    2.5921   -2.4675 H   0  0  0  0  0  0  0  0  0 20
    5.1868    4.9775   -4.9270 H   0  0  0  0  0  0  0  0  0 21
    5.7832    6.4268   -4.8788 H   0  0  0  0  0  0  0  0  0 22
  2  1  2  0  0  0
  3  2  1  0  0  0
  4  3  2  0  0  0
  5  4  1  0  0  0
  6  5  1  0  0  0
  7  4  1  0  0  0
  8  7  1  0  0  0
  9  7  1  0  0  0
 10  1  1  0  0  0
 10  5  2  0  0  0
 11 10  1  0  0  0
 12  1  1  0  0  0
 13 12  1  0  0  0
 14 12  2  0  0  0
 15  2  1  0  0  0
 16 15  1  0  0  0
 17 15  1  0  0  0
 18  3  1  0  0  0
 19 18  1  0  0  0
 20  7  1  0  0  0
 21 18  1  0  0  0
 22 18  1  0  0  0
M  END
