DIDHIJ
  MatStudio         3D                             0

 29 29  0  0  0  0  0  0  0  0999 V2000
    8.3858    4.0742    5.7442 C   0  0  0  0  0  0  0  0  0  1
    8.1013    4.9034    6.9862 C   0  0  0  0  0  0  0  0  0  2
    8.5338    2.5908    5.9682 C   0  0  0  0  0  0  0  0  0  3
    8.5918    5.7516    7.0162 H   0  0  0  0  0  0  0  0  0  4
    7.0425    4.5564    5.1837 C   0  0  0  0  0  0  0  0  0  5
    7.1245    5.2691    4.5164 H   0  0  0  0  0  0  0  0  0  6
    6.4666    3.8340    4.8573 H   0  0  0  0  0  0  0  0  0  7
    9.7256    2.3733    6.6884 O   0  0  0  0  0  0  0  0  0  8
   10.1165    1.7077    6.3819 H   0  0  0  0  0  0  0  0  0  9
    8.5708    2.1229    5.1088 H   0  0  0  0  0  0  0  0  0 10
    8.2067    4.4074    7.8257 H   0  0  0  0  0  0  0  0  0 11
    6.6863    5.0433    6.5461 N   0  0  0  0  0  0  0  0  0 12
    6.0460    6.3821    6.7049 C   0  0  0  0  0  0  0  0  0 13
    6.0432    6.6795    8.1900 C   0  0  0  0  0  0  0  0  0 14
    5.6326    5.9412    8.6658 H   0  0  0  0  0  0  0  0  0 15
    5.5396    7.4907    8.3567 H   0  0  0  0  0  0  0  0  0 16
    6.7823    7.4920    5.9614 C   0  0  0  0  0  0  0  0  0 17
    6.3936    8.3502    6.1941 H   0  0  0  0  0  0  0  0  0 18
    7.7194    7.4829    6.2124 H   0  0  0  0  0  0  0  0  0 19
    4.6271    6.2464    6.1945 C   0  0  0  0  0  0  0  0  0 20
    4.1846    7.1081    6.2381 H   0  0  0  0  0  0  0  0  0 21
    4.6426    5.9356    5.2754 H   0  0  0  0  0  0  0  0  0 22
    9.5619    4.5223    4.9116 N   0  3  0  0  0  0  0  0  0 23
    9.7141    3.9563    3.8443 O   0  5  0  0  0  0  0  0  0 24
   10.2871    5.3880    5.3233 O   0  0  0  0  0  0  0  0  0 25
    6.9557    6.7951    8.4983 H   0  0  0  0  0  0  0  0  0 26
    4.1462    5.6068    6.7423 H   0  0  0  0  0  0  0  0  0 27
    6.7020    7.3494    5.0052 H   0  0  0  0  0  0  0  0  0 28
    7.7678    2.2486    6.4737 H   0  0  0  0  0  0  0  0  0 29
  2  1  1  0  0  0
  3  1  1  0  0  0
  4  2  1  0  0  0
  5  1  1  0  0  0
  6  5  1  0  0  0
  7  5  1  0  0  0
  8  3  1  0  0  0
  9  8  1  0  0  0
 10  3  1  0  0  0
 11  2  1  0  0  0
 12  2  1  0  0  0
 12  5  1  0  0  0
 13 12  1  0  0  0
 14 13  1  0  0  0
 15 14  1  0  0  0
 16 14  1  0  0  0
 17 13  1  0  0  0
 18 17  1  0  0  0
 19 17  1  0  0  0
 20 13  1  0  0  0
 21 20  1  0  0  0
 22 20  1  0  0  0
 23  1  1  0  0  0
 24 23  1  0  0  0
 25 23  2  0  0  0
 26 14  1  0  0  0
 27 20  1  0  0  0
 28 17  1  0  0  0
 29  3  1  0  0  0
M  END
