DMNPYO
  MatStudio         3D                             0

 20 20  0  0  0  0  0  0  0  0999 V2000
    2.7413    2.7413    0.0000 N   0  3  0  0  0  0  0  0  0  1
    3.6523    3.6523    0.0000 O   0  5  0  0  0  0  0  0  0  2
    0.8120    0.8120    0.0000 C   0  0  0  0  0  0  0  0  0  3
   -0.2263   -0.2263    0.0000 N   0  3  0  0  0  0  0  0  0  4
    0.5188    2.0625    0.5244 C   0  0  0  0  0  0  0  0  0  5
    2.0625    0.5188   -0.5244 C   0  0  0  0  0  0  0  0  0  6
    1.5072    3.0107    0.5002 C   0  0  0  0  0  0  0  0  0  7
    3.0107    1.5072   -0.5002 C   0  0  0  0  0  0  0  0  0  8
   -1.3323    0.0744   -0.4222 O   0  5  0  0  0  0  0  0  0  9
    0.0744   -1.3323    0.4222 O   0  0  0  0  0  0  0  0  0 10
    1.3918    3.8704    0.6992 H   0  0  0  0  0  0  0  0  0 11
    3.8704    1.3918   -0.6992 H   0  0  0  0  0  0  0  0  0 12
   -0.8016    2.4316    1.1578 C   0  0  0  0  0  0  0  0  0 13
    2.4316   -0.8016   -1.1578 C   0  0  0  0  0  0  0  0  0 14
   -0.7220    3.3047    1.6540 H   0  0  0  0  0  0  0  0  0 15
    3.3047   -0.7220   -1.6540 H   0  0  0  0  0  0  0  0  0 16
   -1.3546    2.6199    0.5110 H   0  0  0  0  0  0  0  0  0 17
    2.6199   -1.3546   -0.5110 H   0  0  0  0  0  0  0  0  0 18
   -1.0792    1.7491    1.7078 H   0  0  0  0  0  0  0  0  0 19
    1.7491   -1.0792   -1.7078 H   0  0  0  0  0  0  0  0  0 20
  2  1  1  0  0  0
  4  3  1  0  0  0
  5  3  2  0  0  0
  6  3  1  0  0  0
  7  5  1  0  0  0
  7  1  2  0  0  0
  8  6  2  0  0  0
  8  1  1  0  0  0
  9  4  1  0  0  0
 10  4  2  0  0  0
 11  7  1  0  0  0
 12  8  1  0  0  0
 13  5  1  0  0  0
 14  6  1  0  0  0
 15 13  1  0  0  0
 16 14  1  0  0  0
 17 13  1  0  0  0
 18 14  1  0  0  0
 19 13  1  0  0  0
 20 14  1  0  0  0
M  END
