DNBENZ10
  MatStudio         3D                             0

 16 16  0  0  0  0  0  0  0  0999 V2000
    1.8547    5.1303   -0.1134 C   0  0  0  0  0  0  0  0  0  1
    2.3863    6.3118   -0.5606 C   0  0  0  0  0  0  0  0  0  2
    3.7491    6.4284   -0.4560 C   0  0  0  0  0  0  0  0  0  3
    4.5737    5.4225   -0.0141 C   0  0  0  0  0  0  0  0  0  4
    0.3818    4.9603   -0.1583 N   0  3  0  0  0  0  0  0  0  5
   -0.0888    4.0037    0.4826 O   0  5  0  0  0  0  0  0  0  6
    1.8427    6.8695   -1.3702 H   0  0  0  0  0  0  0  0  0  7
    3.9771    4.2734    0.4784 C   0  0  0  0  0  0  0  0  0  8
    4.3218    3.4558    0.3045 H   0  0  0  0  0  0  0  0  0  9
    2.6130    4.1217    0.4190 C   0  0  0  0  0  0  0  0  0 10
    5.4221    5.6052    0.1104 H   0  0  0  0  0  0  0  0  0 11
    2.1741    3.3575    0.5366 H   0  0  0  0  0  0  0  0  0 12
    4.3708    7.6829   -0.9538 N   0  3  0  0  0  0  0  0  0 13
    5.5162    7.9048   -0.5755 O   0  0  0  0  0  0  0  0  0 14
    3.6536    8.4414   -1.5730 O   0  5  0  0  0  0  0  0  0 15
   -0.2651    5.7709   -0.7559 O   0  0  0  0  0  0  0  0  0 16
  2  1  2  0  0  0
  3  2  1  0  0  0
  4  3  2  0  0  0
  5  1  1  0  0  0
  6  5  1  0  0  0
  7  2  1  0  0  0
  8  4  1  0  0  0
  9  8  1  0  0  0
 10  8  2  0  0  0
 10  1  1  0  0  0
 11  4  1  0  0  0
 12 10  1  0  0  0
 13  3  1  0  0  0
 14 13  2  0  0  0
 15 13  1  0  0  0
 16  5  2  0  0  0
M  END
