DNOPHL03
  MatStudio         3D                             0

 17 17  0  0  0  0  0  0  0  0999 V2000
    3.2684    4.1327    2.1002 O   0  0  0  0  0  0  0  0  0  1
    2.6181    4.3874    2.5292 H   0  0  0  0  0  0  0  0  0  2
    3.7133    2.9822    2.6086 C   0  0  0  0  0  0  0  0  0  3
    3.0371    2.4691    3.7164 C   0  0  0  0  0  0  0  0  0  4
    4.8105    2.2638    2.1213 C   0  0  0  0  0  0  0  0  0  5
    5.2181    1.0719    2.7081 C   0  0  0  0  0  0  0  0  0  6
    5.9449    0.5966    2.3761 H   0  0  0  0  0  0  0  0  0  7
    3.4220    1.3040    4.3060 C   0  0  0  0  0  0  0  0  0  8
    2.9606    0.9701    5.0422 H   0  0  0  0  0  0  0  0  0  9
    5.5782    2.7482    0.9813 N   0  3  0  0  0  0  0  0  0 10
    6.5466    2.1200    0.6163 O   0  0  0  0  0  0  0  0  0 11
    2.3082    2.9335    4.0584 H   0  0  0  0  0  0  0  0  0 12
    4.5166    0.6228    3.7892 C   0  0  0  0  0  0  0  0  0 13
    4.9429   -0.6161    4.4380 N   0  3  0  0  0  0  0  0  0 14
    5.9496   -1.1572    4.0324 O   0  5  0  0  0  0  0  0  0 15
    4.2647   -1.0603    5.3497 O   0  0  0  0  0  0  0  0  0 16
    5.2067    3.7738    0.4288 O   0  5  0  0  0  0  0  0  0 17
  2  1  1  0  0  0
  3  1  1  0  0  0
  4  3  2  0  0  0
  5  3  1  0  0  0
  6  5  2  0  0  0
  7  6  1  0  0  0
  8  4  1  0  0  0
  9  8  1  0  0  0
 10  5  1  0  0  0
 11 10  2  0  0  0
 12  4  1  0  0  0
 13  8  2  0  0  0
 13  6  1  0  0  0
 14 13  1  0  0  0
 15 14  1  0  0  0
 16 14  2  0  0  0
 17 10  1  0  0  0
M  END
