ECIBIB01
  MatStudio         3D                             0

 19 19  0  0  0  0  0  0  0  0999 V2000
   -0.1568    8.3470    6.4082 C   0  0  0  0  0  0  0  0  0  1
   -1.0541    7.7079    5.5851 C   0  0  0  0  0  0  0  0  0  2
   -1.2857    6.8069    5.7250 H   0  0  0  0  0  0  0  0  0  3
   -1.5868    8.4013    4.5205 C   0  0  0  0  0  0  0  0  0  4
   -2.1751    7.9454    3.9526 H   0  0  0  0  0  0  0  0  0  5
   -1.2408    9.7036    4.2991 C   0  0  0  0  0  0  0  0  0  6
   -1.6731   10.1262    3.5592 H   0  0  0  0  0  0  0  0  0  7
   -0.3505   10.3219    5.1181 C   0  0  0  0  0  0  0  0  0  8
    0.3841    7.6810    7.5502 N   0  0  0  0  0  0  0  0  0  9
   -0.1321   11.1991    4.9702 H   0  0  0  0  0  0  0  0  0 10
    0.2078    9.6524    6.1840 C   0  0  0  0  0  0  0  0  0 11
    0.8718   10.0465    6.8255 H   0  0  0  0  0  0  0  0  0 12
   -0.1541    7.8700    8.8788 C   0  0  0  0  0  0  0  0  0 13
   -0.8190    7.2658    9.1027 H   0  0  0  0  0  0  0  0  0 14
    0.4931    7.8339    9.5725 H   0  0  0  0  0  0  0  0  0 15
   -0.3699    8.6971    8.9467 H   0  0  0  0  0  0  0  0  0 16
    1.2052    6.6356    7.3472 N   0  3  0  0  0  0  0  0  0 17
    1.5198    5.9583    8.3130 O   0  5  0  0  0  0  0  0  0 18
    1.6166    6.4463    6.2041 O   0  0  0  0  0  0  0  0  0 19
  2  1  2  0  0  0
  3  2  1  0  0  0
  4  2  1  0  0  0
  5  4  1  0  0  0
  6  4  2  0  0  0
  7  6  1  0  0  0
  8  6  1  0  0  0
  9  1  1  0  0  0
 10  8  1  0  0  0
 11  1  1  0  0  0
 11  8  2  0  0  0
 12 11  1  0  0  0
 13  9  1  0  0  0
 14 13  1  0  0  0
 15 13  1  0  0  0
 16 13  1  0  0  0
 17  9  1  0  0  0
 18 17  1  0  0  0
 19 17  2  0  0  0
M  END
