ELOXOS
  MatStudio         3D                             0

 14 14  0  0  0  0  0  0  0  0999 V2000
   12.8991    3.1327    6.1979 N   0  0  0  0  0  0  0  0  0  1
   12.8885    2.7931    4.8466 C   0  0  0  0  0  0  0  0  0  2
   11.8835    2.8808    7.0420 C   0  0  0  0  0  0  0  0  0  3
   11.6991    2.1445    4.3954 C   0  0  0  0  0  0  0  0  0  4
   10.6775    1.8704    5.2372 C   0  0  0  0  0  0  0  0  0  5
    9.9156    1.4354    4.9294 H   0  0  0  0  0  0  0  0  0  6
   11.6244    1.9048    3.5000 H   0  0  0  0  0  0  0  0  0  7
   11.9408    3.1389    7.9339 H   0  0  0  0  0  0  0  0  0  8
   10.7858    2.2548    6.5908 C   0  0  0  0  0  0  0  0  0  9
    9.7121    1.9818    7.5223 N   0  3  0  0  0  0  0  0  0 10
    8.7968    1.2719    7.1644 O   0  0  0  0  0  0  0  0  0 11
    9.7722    2.4807    8.6404 O   0  5  0  0  0  0  0  0  0 12
   13.8611    3.0753    4.1459 O   0  0  0  0  0  0  0  0  0 13
   13.6884    3.5914    6.4590 H   0  0  0  0  0  0  0  0  0 14
  1  2  1  0  0  0
  1  3  1  0  0  0
  1 14  1  0  0  0
  2  4  1  0  0  0
  2 13  2  0  0  0
  3  8  1  0  0  0
  3  9  2  0  0  0
  4  5  2  0  0  0
  4  7  1  0  0  0
  5  6  1  0  0  0
  5  9  1  0  0  0
  9 10  1  0  0  0
 10 11  2  0  0  0
 10 12  1  0  0  0
M  END
