EWEVIM02
  MatStudio         3D                             0

 19 19  0  0  0  0  0  0  0  0999 V2000
    1.6263    6.6581    0.1832 O   0  0  0  0  0  0  0  0  0  1
    1.3037    7.3295   -0.2444 H   0  0  0  0  0  0  0  0  0  2
    2.2297    7.1162    1.2627 C   0  0  0  0  0  0  0  0  0  3
    2.3393    8.3204    1.4856 O   0  0  0  0  0  0  0  0  0  4
    2.7489    6.0699    2.1588 C   0  0  0  0  0  0  0  0  0  5
    2.6367    4.7265    1.7871 C   0  0  0  0  0  0  0  0  0  6
    2.2252    4.5152    0.9688 H   0  0  0  0  0  0  0  0  0  7
    3.3711    6.4141    3.3911 C   0  0  0  0  0  0  0  0  0  8
    3.8515    5.3595    4.1958 C   0  0  0  0  0  0  0  0  0  9
    4.2678    5.5452    5.0174 H   0  0  0  0  0  0  0  0  0 10
    3.5230    7.6720    3.8254 N   0  0  0  0  0  0  0  0  0 11
    3.2074    8.3369    3.3036 H   0  0  0  0  0  0  0  0  0 12
    3.9963    7.8079    4.5662 H   0  0  0  0  0  0  0  0  0 13
    3.7093    4.0707    3.7735 C   0  0  0  0  0  0  0  0  0 14
    4.2423    3.0080    4.6471 N   0  3  0  0  0  0  0  0  0 15
    4.9200    3.3190    5.6027 O   0  5  0  0  0  0  0  0  0 16
    3.1071    3.7063    2.5753 C   0  0  0  0  0  0  0  0  0 17
    3.0256    2.8068    2.3184 H   0  0  0  0  0  0  0  0  0 18
    3.9645    1.8592    4.3862 O   0  0  0  0  0  0  0  0  0 19
  2  1  1  0  0  0
  3  1  1  0  0  0
  4  3  2  0  0  0
  5  3  1  0  0  0
  6  5  1  0  0  0
  7  6  1  0  0  0
  8  5  2  0  0  0
  9  8  1  0  0  0
 10  9  1  0  0  0
 11  8  1  0  0  0
 12 11  1  0  0  0
 13 11  1  0  0  0
 14  9  2  0  0  0
 15 14  1  0  0  0
 16 15  1  0  0  0
 17  6  2  0  0  0
 17 14  1  0  0  0
 18 17  1  0  0  0
 19 15  2  0  0  0
M  END
