FESNEW16
  MatStudio         3D                             0

 20 20  0  0  0  0  0  0  0  0999 V2000
    2.3437    2.5408    0.9151 C   0  0  0  0  0  0  0  0  0  1
    2.0182    3.5544   -0.0025 C   0  0  0  0  0  0  0  0  0  2
    2.1214    2.8062    2.2735 C   0  0  0  0  0  0  0  0  0  3
    2.1982    3.3736   -1.4534 N   0  3  0  0  0  0  0  0  0  4
    2.2929    2.1305    2.9295 H   0  0  0  0  0  0  0  0  0  5
    1.5103    4.7710    0.3981 C   0  0  0  0  0  0  0  0  0  6
    1.3195    4.9849    1.7534 C   0  0  0  0  0  0  0  0  0  7
    1.6151    4.0190    2.6913 C   0  0  0  0  0  0  0  0  0  8
    1.4820    4.2032    3.6473 H   0  0  0  0  0  0  0  0  0  9
    1.3307    5.4201   -0.2333 H   0  0  0  0  0  0  0  0  0 10
    0.7689    6.2676    2.1803 N   0  3  0  0  0  0  0  0  0 11
    2.8216    1.3763    0.4582 O   0  0  0  0  0  0  0  0  0 12
    3.1398    0.3371    1.3921 C   0  0  0  0  0  0  0  0  0 13
    3.4645   -0.3569    0.8855 H   0  0  0  0  0  0  0  0  0 14
    3.7555    0.6325    2.0500 H   0  0  0  0  0  0  0  0  0 15
    2.3782    0.0565    1.8837 H   0  0  0  0  0  0  0  0  0 16
    2.9881    2.5482   -1.8407 O   0  0  0  0  0  0  0  0  0 17
    1.5763    4.0848   -2.1963 O   0  5  0  0  0  0  0  0  0 18
    0.6324    7.1488    1.3539 O   0  0  0  0  0  0  0  0  0 19
    0.4671    6.4076    3.3517 O   0  5  0  0  0  0  0  0  0 20
  2  1  2  0  0  0
  3  1  1  0  0  0
  4  2  1  0  0  0
  5  3  1  0  0  0
  6  2  1  0  0  0
  7  6  2  0  0  0
  8  3  2  0  0  0
  8  7  1  0  0  0
  9  8  1  0  0  0
 10  6  1  0  0  0
 11  7  1  0  0  0
 12  1  1  0  0  0
 13 12  1  0  0  0
 14 13  1  0  0  0
 15 13  1  0  0  0
 16 13  1  0  0  0
 17  4  2  0  0  0
 18  4  1  0  0  0
 19 11  2  0  0  0
 20 11  1  0  0  0
M  END
