FUXNAN
  MatStudio         3D                             0

 19 19  0  0  0  0  0  0  0  0999 V2000
    1.1067    1.2114    1.1303 C   0  0  0  0  0  0  0  0  0  1
    1.4004   -0.1282    1.1632 C   0  0  0  0  0  0  0  0  0  2
    0.2592    1.8060    2.1238 N   0  3  0  0  0  0  0  0  0  3
   -0.0286    2.9958    2.0538 O   0  5  0  0  0  0  0  0  0  4
    2.1749   -0.6985    0.1830 C   0  0  0  0  0  0  0  0  0  5
    2.6903    0.1060   -0.8624 C   0  0  0  0  0  0  0  0  0  6
    2.3789    1.4581   -0.8614 C   0  0  0  0  0  0  0  0  0  7
   -0.1537    1.0845    3.0448 O   0  0  0  0  0  0  0  0  0  8
    3.4511   -0.4269   -1.8527 N   0  0  0  0  0  0  0  0  0  9
    3.7931   -1.8205   -1.9716 C   0  0  0  0  0  0  0  0  0 10
    1.5974    2.0236    0.1095 C   0  0  0  0  0  0  0  0  0 11
    3.7152    0.1940   -2.4297 H   0  0  0  0  0  0  0  0  0 12
    4.3755   -1.9127   -2.6884 H   0  0  0  0  0  0  0  0  0 13
    4.2671   -2.1552   -1.1950 H   0  0  0  0  0  0  0  0  0 14
    2.9860   -2.3631   -2.0591 H   0  0  0  0  0  0  0  0  0 15
    1.0643   -0.6583    1.8723 H   0  0  0  0  0  0  0  0  0 16
    2.3651   -1.6355    0.2022 H   0  0  0  0  0  0  0  0  0 17
    2.7100    2.0097   -1.5575 H   0  0  0  0  0  0  0  0  0 18
    1.3994    2.9591    0.0931 H   0  0  0  0  0  0  0  0  0 19
  2  1  2  0  0  0
  3  1  1  0  0  0
  4  3  1  0  0  0
  5  2  1  0  0  0
  6  5  2  0  0  0
  7  6  1  0  0  0
  8  3  2  0  0  0
  9  6  1  0  0  0
 10  9  1  0  0  0
 11  1  1  0  0  0
 11  7  2  0  0  0
 12  9  1  0  0  0
 13 10  1  0  0  0
 14 10  1  0  0  0
 15 10  1  0  0  0
 16  2  1  0  0  0
 17  5  1  0  0  0
 18  7  1  0  0  0
 19 11  1  0  0  0
M  END
