GEDYEU
  MatStudio         3D                             0

 15 16  0  0  0  0  0  0  0  0999 V2000
    6.5302   -0.5566    1.7734 O   0  0  0  0  0  0  0  0  0  1
    5.4305   -0.0634    1.7757 N   0  3  0  0  0  0  0  0  0  2
    5.2352    0.9387    2.6642 N   0  0  0  0  0  0  0  0  0  3
    3.9154    1.5760    2.9393 C   0  0  0  0  0  0  0  0  0  4
    4.2684    2.5781    4.0437 C   0  0  0  0  0  0  0  0  0  5
    4.1562    3.4924    3.7385 H   0  0  0  0  0  0  0  0  0  6
    3.7231    2.4374    4.8338 H   0  0  0  0  0  0  0  0  0  7
    5.6477    2.2820    4.3043 N   0  0  0  0  0  0  0  0  0  8
    6.1681    1.3850    3.5628 C   0  0  0  0  0  0  0  0  0  9
    7.4467    1.1679    3.8932 N   0  0  0  0  0  0  0  0  0 10
    7.6402    2.0284    4.8960 N   0  0  0  0  0  0  0  0  0 11
    6.5824    2.7552    5.1944 N   0  0  0  0  0  0  0  0  0 12
    3.2663    0.9248    3.2464 H   0  0  0  0  0  0  0  0  0 13
    3.5696    2.0249    2.1514 H   0  0  0  0  0  0  0  0  0 14
    4.4855   -0.3248    1.0987 O   0  5  0  0  0  0  0  0  0 15
  2  1  2  0  0  0
  3  2  1  0  0  0
  4  3  1  0  0  0
  5  4  1  0  0  0
  6  5  1  0  0  0
  7  5  1  0  0  0
  8  5  1  0  0  0
  9  8  1  0  0  0
  9  3  1  0  0  0
 10  9  2  0  0  0
 11 10  1  0  0  0
 12  8  1  0  0  0
 12 11  2  0  0  0
 13  4  1  0  0  0
 14  4  1  0  0  0
 15  2  1  0  0  0
M  END
