GIZSOX
  MatStudio         3D                             0

 20 20  0  0  0  0  0  0  0  0999 V2000
    3.1078    9.3386   13.5384 C   0  0  0  0  0  0  0  0  0  1
    2.1783   10.0801   14.4147 C   0  0  0  0  0  0  0  0  0  2
    3.1603    9.8998   12.1291 N   0  3  0  0  0  0  0  0  0  3
    2.6613    7.8920   13.3183 N   0  3  0  0  0  0  0  0  0  4
    3.1764    7.2741   12.3942 O   0  5  0  0  0  0  0  0  0  5
    1.1213   10.6073   13.9480 N   0  0  0  0  0  0  0  0  0  6
    2.1665    9.7649   11.4384 O   0  5  0  0  0  0  0  0  0  7
    2.7534   10.1277   15.8133 C   0  0  0  0  0  0  0  0  0  8
    1.8848    7.4373   14.1150 O   0  0  0  0  0  0  0  0  0  9
    4.1681   10.4984   11.7804 O   0  0  0  0  0  0  0  0  0 10
    4.0085    9.2627   15.7364 C   0  0  0  0  0  0  0  0  0 11
    0.4209   11.3306   14.9145 O   0  0  0  0  0  0  0  0  0 12
    4.4251    9.3216   14.2741 C   0  0  0  0  0  0  0  0  0 13
    3.7568    8.3160   16.0122 H   0  0  0  0  0  0  0  0  0 14
    2.9590   11.0143   15.8822 H   0  0  0  0  0  0  0  0  0 15
    4.6575    9.7445   16.3144 H   0  0  0  0  0  0  0  0  0 16
   -0.3320   11.4168   14.5234 H   0  0  0  0  0  0  0  0  0 17
    4.9209    8.6119   14.0315 H   0  0  0  0  0  0  0  0  0 18
    2.0508    9.6923   16.4709 H   0  0  0  0  0  0  0  0  0 19
    4.7581   10.4474   13.9082 H   0  0  0  0  0  0  0  0  0 20
  2  1  1  0  0  0
  3  1  1  0  0  0
  4  1  1  0  0  0
  5  4  1  0  0  0
  6  2  2  0  0  0
  7  3  1  0  0  0
  8  2  1  0  0  0
  9  4  2  0  0  0
 10  3  2  0  0  0
 11  8  1  0  0  0
 12  6  1  0  0  0
 13 11  1  0  0  0
 13  1  1  0  0  0
 14 11  1  0  0  0
 15  8  1  0  0  0
 16 11  1  0  0  0
 17 12  1  0  0  0
 18 13  1  0  0  0
 19  8  1  0  0  0
 20 13  1  0  0  0
M  END
