HAWSOO
  MatStudio         3D                             0

 22 22  0  0  0  0  0  0  0  0999 V2000
    1.0396    0.1386    6.3102 O   0  0  0  0  0  0  0  0  0  1
    1.3796    0.2632    7.4674 N   0  3  0  0  0  0  0  0  0  2
    2.4417   -0.1300    7.9278 O   0  5  0  0  0  0  0  0  0  3
    0.4331    0.9221    8.3946 C   0  0  0  0  0  0  0  0  0  4
   -0.8504    0.4186    8.5441 C   0  0  0  0  0  0  0  0  0  5
   -1.3653   -0.7909    7.7970 C   0  0  0  0  0  0  0  0  0  6
    0.8812    2.0227    9.1156 C   0  0  0  0  0  0  0  0  0  7
    2.2578    2.5070    8.8940 N   0  3  0  0  0  0  0  0  0  8
    2.5895    2.7821    7.7532 O   0  5  0  0  0  0  0  0  0  9
    2.9904    2.6027    9.8612 O   0  0  0  0  0  0  0  0  0 10
    0.0548    2.7132    9.9957 C   0  0  0  0  0  0  0  0  0 11
   -1.2355    2.2023   10.1448 C   0  0  0  0  0  0  0  0  0 12
   -1.8262    2.6287   10.7223 H   0  0  0  0  0  0  0  0  0 13
   -1.6596    1.0835    9.4601 C   0  0  0  0  0  0  0  0  0 14
   -1.5012   -0.5629    6.8747 H   0  0  0  0  0  0  0  0  0 15
   -2.1970   -1.0749    8.1831 H   0  0  0  0  0  0  0  0  0 16
   -0.7236   -1.5030    7.8595 H   0  0  0  0  0  0  0  0  0 17
   -2.5182    0.7615    9.6158 H   0  0  0  0  0  0  0  0  0 18
    0.4901    3.9697   10.7030 C   0  0  0  0  0  0  0  0  0 19
    1.0966    3.7438   11.4114 H   0  0  0  0  0  0  0  0  0 20
   -0.2785    4.4131   11.0681 H   0  0  0  0  0  0  0  0  0 21
    0.9292    4.5526   10.0786 H   0  0  0  0  0  0  0  0  0 22
  2  1  2  0  0  0
  3  2  1  0  0  0
  4  2  1  0  0  0
  5  4  1  0  0  0
  6  5  1  0  0  0
  7  4  2  0  0  0
  8  7  1  0  0  0
  9  8  1  0  0  0
 10  8  2  0  0  0
 11  7  1  0  0  0
 12 11  2  0  0  0
 13 12  1  0  0  0
 14 12  1  0  0  0
 14  5  2  0  0  0
 15  6  1  0  0  0
 16  6  1  0  0  0
 17  6  1  0  0  0
 18 14  1  0  0  0
 19 11  1  0  0  0
 20 19  1  0  0  0
 21 19  1  0  0  0
 22 19  1  0  0  0
M  END
