HEHTUJ
  MatStudio         3D                             0

 14 14  0  0  0  0  0  0  0  0999 V2000
    6.8084    4.6073    1.0059 N   0  0  0  0  0  0  0  0  0  1
    5.7279    5.2186    0.4398 N   0  0  0  0  0  0  0  0  0  2
    6.0283    6.5065    0.3824 C   0  0  0  0  0  0  0  0  0  3
    6.7907    3.7667    1.1507 H   0  0  0  0  0  0  0  0  0  4
    7.7853    5.4521    1.3006 C   0  0  0  0  0  0  0  0  0  5
    8.5578    5.1857    1.6990 H   0  0  0  0  0  0  0  0  0  6
    5.0691    7.4942   -0.1797 C   0  0  0  0  0  0  0  0  0  7
    4.8848    8.1221    0.5041 H   0  0  0  0  0  0  0  0  0  8
    5.5159    8.0663   -0.8636 H   0  0  0  0  0  0  0  0  0  9
    7.3209    6.6865    0.9161 C   0  0  0  0  0  0  0  0  0 10
    8.0340    7.9007    1.0725 N   0  3  0  0  0  0  0  0  0 11
    7.5178    8.9396    0.6626 O   0  5  0  0  0  0  0  0  0 12
    9.1397    7.8796    1.6175 O   0  0  0  0  0  0  0  0  0 13
    4.3673    7.1040   -0.6189 H   0  0  0  0  0  0  0  0  0 14
  1  2  1  0  0  0
  1  4  1  0  0  0
  1  5  1  0  0  0
  2  3  2  0  0  0
  3  7  1  0  0  0
  3 10  1  0  0  0
  5  6  1  0  0  0
  5 10  2  0  0  0
  7  8  1  0  0  0
  7  9  1  0  0  0
  7 14  1  0  0  0
 10 11  1  0  0  0
 11 12  1  0  0  0
 11 13  2  0  0  0
M  END
