HEHVAR
  MatStudio         3D                             0

 14 14  0  0  0  0  0  0  0  0999 V2000
    2.5537    0.7577    3.7341 N   0  0  0  0  0  0  0  0  0  1
    2.4672   -0.5874    3.5528 N   0  0  0  0  0  0  0  0  0  2
    3.1941   -1.1004    4.5327 C   0  0  0  0  0  0  0  0  0  3
    3.7148   -0.0894    5.3254 C   0  0  0  0  0  0  0  0  0  4
    4.5558   -0.2639    6.4710 N   0  3  0  0  0  0  0  0  0  5
    4.9158    0.7215    7.0962 O   0  5  0  0  0  0  0  0  0  6
    3.2861    1.1196    4.8006 C   0  0  0  0  0  0  0  0  0  7
    4.8931   -1.4005    6.7539 O   0  0  0  0  0  0  0  0  0  8
    3.2428   -2.1923    4.6956 H   0  0  0  0  0  0  0  0  0  9
    3.5074    2.5541    5.1681 C   0  0  0  0  0  0  0  0  0 10
    4.5207    2.6393    5.1261 H   0  0  0  0  0  0  0  0  0 11
    3.3940    2.7457    6.0581 H   0  0  0  0  0  0  0  0  0 12
    1.9512    1.3835    3.2225 H   0  0  0  0  0  0  0  0  0 13
    3.0505    3.1075    4.4499 H   0  0  0  0  0  0  0  0  0 14
  1  2  1  0  0  0
  1  7  1  0  0  0
  1 13  1  0  0  0
  2  3  2  0  0  0
  3  4  1  0  0  0
  3  9  1  0  0  0
  4  5  1  0  0  0
  4  7  2  0  0  0
  5  6  1  0  0  0
  5  8  2  0  0  0
  7 10  1  0  0  0
 10 11  1  0  0  0
 10 12  1  0  0  0
 10 14  1  0  0  0
M  END
