IJIVEC
  MatStudio         3D                             0

 16 16  0  0  0  0  0  0  0  0999 V2000
    0.4557    9.4689    2.5143 O   0  0  0  0  0  0  0  0  0  1
    0.9680    9.4339    3.7996 N   0  0  0  0  0  0  0  0  0  2
    0.0980    9.4339    4.8536 C   0  0  0  0  0  0  0  0  0  3
    2.3080    9.4887    3.9061 C   0  0  0  0  0  0  0  0  0  4
    2.8752    9.5501    5.1376 C   0  0  0  0  0  0  0  0  0  5
    0.6835    9.4821    6.1237 C   0  0  0  0  0  0  0  0  0  6
   -1.2062    9.3242    4.4533 N   0  0  0  0  0  0  0  0  0  7
   -2.2012    9.5369    5.3395 N   0  3  0  0  0  0  0  0  0  8
   -3.3365    9.3330    4.9038 O   0  5  0  0  0  0  0  0  0  9
   -2.0028    9.9031    6.4986 O   0  0  0  0  0  0  0  0  0 10
    2.0451    9.5369    6.2477 C   0  0  0  0  0  0  0  0  0 11
    0.1992    8.4646    2.2936 H   0  0  0  0  0  0  0  0  0 12
    0.0797    9.4733    6.8259 H   0  0  0  0  0  0  0  0  0 13
    2.3820    9.6049    7.1544 H   0  0  0  0  0  0  0  0  0 14
    3.8559    9.6049    5.1370 H   0  0  0  0  0  0  0  0  0 15
    2.7485    9.4514    3.1717 H   0  0  0  0  0  0  0  0  0 16
  2  1  1  0  0  0
  3  2  1  0  0  0
  4  2  1  0  0  0
  5  4  2  0  0  0
  6  3  1  0  0  0
  7  3  2  0  0  0
  8  7  1  0  0  0
  9  8  1  0  0  0
 10  8  2  0  0  0
 11  6  2  0  0  0
 11  5  1  0  0  0
 12  1  1  0  0  0
 13  6  1  0  0  0
 14 11  1  0  0  0
 15  5  1  0  0  0
 16  4  1  0  0  0
M  END
