ISAJAN
  MatStudio         3D                             0

 18 18  0  0  0  0  0  0  0  0999 V2000
    3.0461   -1.6385    9.5701 O   0  0  0  0  0  0  0  0  0  1
    3.4145   -0.9695    8.6435 C   0  0  0  0  0  0  0  0  0  2
    4.0413   -1.5085    7.5001 N   0  0  0  0  0  0  0  0  0  3
    3.2076    0.4959    8.5343 C   0  0  0  0  0  0  0  0  0  4
    4.0517   -2.7689    7.5153 N   0  3  0  0  0  0  0  0  0  5
    4.1187   -3.8725    7.4225 N   0  5  0  0  0  0  0  0  0  6
    2.8786    1.2637    9.6524 C   0  0  0  0  0  0  0  0  0  7
    2.9873    0.7101   11.0095 N   0  3  0  0  0  0  0  0  0  8
    4.0689    0.3361   11.3922 O   0  0  0  0  0  0  0  0  0  9
    1.9764    0.7209   11.6899 O   0  5  0  0  0  0  0  0  0 10
    2.5056    2.5834    9.5607 C   0  0  0  0  0  0  0  0  0 11
    2.2786    3.0626   10.3256 H   0  0  0  0  0  0  0  0  0 12
    3.1801    1.1304    7.2954 C   0  0  0  0  0  0  0  0  0 13
    2.8265    2.4641    7.1956 C   0  0  0  0  0  0  0  0  0 14
    3.4011    0.6542    6.5276 H   0  0  0  0  0  0  0  0  0 15
    2.4729    3.1870    8.3209 C   0  0  0  0  0  0  0  0  0 16
    2.2138    4.0768    8.2413 H   0  0  0  0  0  0  0  0  0 17
    2.8265    2.8786    6.3642 H   0  0  0  0  0  0  0  0  0 18
  2  1  2  0  0  0
  3  2  1  0  0  0
  4  2  1  0  0  0
  5  3  2  0  0  0
  6  5  2  0  0  0
  7  4  2  0  0  0
  8  7  1  0  0  0
  9  8  2  0  0  0
 10  8  1  0  0  0
 11  7  1  0  0  0
 12 11  1  0  0  0
 13  4  1  0  0  0
 14 13  2  0  0  0
 15 13  1  0  0  0
 16 14  1  0  0  0
 16 11  2  0  0  0
 17 16  1  0  0  0
 18 14  1  0  0  0
M  END
