JEDSUG
  MatStudio         3D                             0

 16 16  0  0  0  0  0  0  0  0999 V2000
   -0.2211    1.1519    8.0790 C   0  0  0  0  0  0  0  0  0  1
    0.8129    1.5198    7.6326 O   0  0  0  0  0  0  0  0  0  2
   -1.0121    0.0706    7.6842 N   0  0  0  0  0  0  0  0  0  3
   -0.8159   -0.6065    6.5012 N   0  3  0  0  0  0  0  0  0  4
   -1.6749   -1.4167    6.2375 O   0  5  0  0  0  0  0  0  0  5
    0.1590   -0.3631    5.8427 O   0  0  0  0  0  0  0  0  0  6
   -2.2803   -0.0658    8.3943 C   0  0  0  0  0  0  0  0  0  7
   -0.9412    1.6784    9.1519 N   0  0  0  0  0  0  0  0  0  8
   -2.2673    1.1139    9.3639 C   0  0  0  0  0  0  0  0  0  9
   -2.3335    0.8871   10.2679 H   0  0  0  0  0  0  0  0  0 10
   -2.8809    1.7568    9.1030 H   0  0  0  0  0  0  0  0  0 11
   -2.2856   -1.0964    8.9105 H   0  0  0  0  0  0  0  0  0 12
   -0.5120    2.7431    9.8982 N   0  3  0  0  0  0  0  0  0 13
    0.6379    3.1022    9.7601 O   0  0  0  0  0  0  0  0  0 14
   -1.3219    3.2172   10.6600 O   0  5  0  0  0  0  0  0  0 15
   -2.9554   -0.0301    7.7861 H   0  0  0  0  0  0  0  0  0 16
  2  1  2  0  0  0
  3  1  1  0  0  0
  4  3  1  0  0  0
  5  4  1  0  0  0
  6  4  2  0  0  0
  7  3  1  0  0  0
  8  1  1  0  0  0
  9  8  1  0  0  0
  9  7  1  0  0  0
 10  9  1  0  0  0
 11  9  1  0  0  0
 12  7  1  0  0  0
 13  8  1  0  0  0
 14 13  2  0  0  0
 15 13  1  0  0  0
 16  7  1  0  0  0
M  END
