JIZJIL
  MatStudio         3D                             0

 17 17  0  0  0  0  0  0  0  0999 V2000
    1.6462   -0.4731    8.0715 C   0  0  0  0  0  0  0  0  0  1
    1.6462   -0.4383    9.5340 N   0  0  0  0  0  0  0  0  0  2
    1.6462   -1.5282   10.3369 C   0  0  0  0  0  0  0  0  0  3
    1.6462   -1.1997   11.6263 N   0  0  0  0  0  0  0  0  0  4
    1.6462    0.1528   11.6636 C   0  0  0  0  0  0  0  0  0  5
    1.6462    0.6397   10.3972 C   0  0  0  0  0  0  0  0  0  6
    1.6462    0.6131   12.5213 H   0  0  0  0  0  0  0  0  0  7
    1.6462   -2.9247    9.8352 C   0  0  0  0  0  0  0  0  0  8
    1.6462    1.9922    9.9984 N   0  3  0  0  0  0  0  0  0  9
    1.6462    2.8359   10.8869 O   0  5  0  0  0  0  0  0  0 10
    1.6462   -3.5323   10.5276 H   0  0  0  0  0  0  0  0  0 11
    1.6462    2.2768    8.8131 O   0  0  0  0  0  0  0  0  0 12
    1.6462   -1.3086    7.7560 H   0  0  0  0  0  0  0  0  0 13
    0.9877    0.0366    7.7231 H   0  0  0  0  0  0  0  0  0 14
    2.3046    0.0366    7.7231 H   0  0  0  0  0  0  0  0  0 15
    2.2190   -3.0290    9.2130 H   0  0  0  0  0  0  0  0  0 16
    1.0733   -3.0290    9.2130 H   0  0  0  0  0  0  0  0  0 17
  2  1  1  0  0  0
  3  2  1  0  0  0
  4  3  2  0  0  0
  5  4  1  0  0  0
  6  2  1  0  0  0
  6  5  2  0  0  0
  7  5  1  0  0  0
  8  3  1  0  0  0
  9  6  1  0  0  0
 10  9  1  0  0  0
 11  8  1  0  0  0
 12  9  2  0  0  0
 13  1  1  0  0  0
 14  1  1  0  0  0
 15  1  1  0  0  0
 16  8  1  0  0  0
 17  8  1  0  0  0
M  END
