KAJFAD
  MatStudio         3D                             0

 22 22  0  0  0  0  0  0  0  0999 V2000
    4.8214    7.1039    0.7861 O   0  5  0  0  0  0  0  0  0  1
    6.0528    6.6960    0.5687 N   0  3  0  0  0  0  0  0  0  2
    6.9819    7.6198    0.1382 C   0  0  0  0  0  0  0  0  0  3
    6.3896    5.4022    0.7567 C   0  0  0  0  0  0  0  0  0  4
    7.6574    4.9553    0.5544 C   0  0  0  0  0  0  0  0  0  5
    7.8812    4.0615    0.6840 H   0  0  0  0  0  0  0  0  0  6
    5.7366    4.7998    1.0322 H   0  0  0  0  0  0  0  0  0  7
    8.5959    5.8756    0.1508 C   0  0  0  0  0  0  0  0  0  8
    8.2858    7.1867   -0.0655 C   0  0  0  0  0  0  0  0  0  9
    8.9403    7.7845   -0.3459 H   0  0  0  0  0  0  0  0  0 10
    9.9854    5.4456   -0.0664 N   0  3  0  0  0  0  0  0  0 11
   10.7907    6.2711   -0.4777 O   0  0  0  0  0  0  0  0  0 12
    6.5261    8.8677   -0.0008 N   0  0  0  0  0  0  0  0  0 13
    7.3111    9.9348   -0.6219 C   0  0  0  0  0  0  0  0  0 14
    7.3691    9.8447   -2.1188 C   0  0  0  0  0  0  0  0  0 15
    6.5248    9.8141   -2.4583 H   0  0  0  0  0  0  0  0  0 16
    5.6954    8.9343   -0.0957 H   0  0  0  0  0  0  0  0  0 17
    8.2284    9.8686   -0.2473 H   0  0  0  0  0  0  0  0  0 18
    6.8970   10.7692   -0.3546 H   0  0  0  0  0  0  0  0  0 19
   10.2715    4.2803    0.1885 O   0  5  0  0  0  0  0  0  0 20
    7.8562   10.6510   -2.4364 H   0  0  0  0  0  0  0  0  0 21
    7.8137    9.0085   -2.4140 H   0  0  0  0  0  0  0  0  0 22
  2  1  1  0  0  0
  3  2  2  0  0  0
  4  2  1  0  0  0
  5  4  2  0  0  0
  6  5  1  0  0  0
  7  4  1  0  0  0
  8  5  1  0  0  0
  9  3  1  0  0  0
  9  8  2  0  0  0
 10  9  1  0  0  0
 11  8  1  0  0  0
 12 11  2  0  0  0
 13  3  1  0  0  0
 14 13  1  0  0  0
 15 14  1  0  0  0
 16 15  1  0  0  0
 17 13  1  0  0  0
 18 14  1  0  0  0
 19 14  1  0  0  0
 20 11  1  0  0  0
 21 15  1  0  0  0
 22 15  1  0  0  0
M  END
