KASBAH
  MatStudio         3D                             0

 20 20  0  0  0  0  0  0  0  0999 V2000
   -3.6038    2.0822    5.7963 C   0  0  0  0  0  0  0  0  0  1
   -4.3141    2.7957    6.7528 C   0  0  0  0  0  0  0  0  0  2
   -5.5793    2.3536    7.1486 C   0  0  0  0  0  0  0  0  0  3
   -6.1202    1.2098    6.6023 C   0  0  0  0  0  0  0  0  0  4
   -5.4099    0.5070    5.6550 C   0  0  0  0  0  0  0  0  0  5
   -2.2586    2.5882    5.3242 C   0  0  0  0  0  0  0  0  0  6
   -1.1702    1.7146    5.8185 N   0  0  0  0  0  0  0  0  0  7
    0.0866    1.8033    5.1923 N   0  3  0  0  0  0  0  0  0  8
   -4.1587    0.9362    5.2465 C   0  0  0  0  0  0  0  0  0  9
   -3.6550    0.4324    4.5691 H   0  0  0  0  0  0  0  0  0 10
   -6.0374    2.8714    7.7742 H   0  0  0  0  0  0  0  0  0 11
   -1.3183    0.6854    6.6511 C   0  0  0  0  0  0  0  0  0 12
    0.2290    2.7190    4.4125 O   0  0  0  0  0  0  0  0  0 13
   -5.8018   -0.2789    5.2996 H   0  0  0  0  0  0  0  0  0 14
   -1.4290   -0.1859    7.3839 N   0  0  0  0  0  0  0  0  0 15
    0.9152    0.9676    5.5217 O   0  5  0  0  0  0  0  0  0 16
   -7.0186    0.8854    6.8734 H   0  0  0  0  0  0  0  0  0 17
   -3.9269    3.6184    7.1707 H   0  0  0  0  0  0  0  0  0 18
   -2.0984    3.4217    5.6435 H   0  0  0  0  0  0  0  0  0 19
   -2.1664    2.5330    4.3433 H   0  0  0  0  0  0  0  0  0 20
  2  1  1  0  0  0
  3  2  2  0  0  0
  4  3  1  0  0  0
  5  4  2  0  0  0
  6  1  1  0  0  0
  7  6  1  0  0  0
  8  7  1  0  0  0
  9  1  2  0  0  0
  9  5  1  0  0  0
 10  9  1  0  0  0
 11  3  1  0  0  0
 12  7  1  0  0  0
 13  8  2  0  0  0
 14  5  1  0  0  0
 15 12  3  0  0  0
 16  8  1  0  0  0
 17  4  1  0  0  0
 18  2  1  0  0  0
 19  6  1  0  0  0
 20  6  1  0  0  0
M  END
