KAYTUZ
  MatStudio         3D                             0

 24 24  0  0  0  0  0  0  0  0999 V2000
    3.1689    1.3141    7.5333 C   0  0  0  0  0  0  0  0  0  1
    1.9458    1.1654    8.0861 N   0  0  0  0  0  0  0  0  0  2
    1.4413    0.4927    7.8192 H   0  0  0  0  0  0  0  0  0  3
    3.5831    0.4327    6.5171 C   0  0  0  0  0  0  0  0  0  4
    4.8264    0.5133    5.9586 C   0  0  0  0  0  0  0  0  0  5
    4.0827    2.3085    7.9357 C   0  0  0  0  0  0  0  0  0  6
    5.3280    2.3918    7.3773 C   0  0  0  0  0  0  0  0  0  7
    1.4480    1.9304    9.2127 C   0  0  0  0  0  0  0  0  0  8
    0.7206    1.3706    9.6512 H   0  0  0  0  0  0  0  0  0  9
    0.8725    3.2813    8.8368 C   0  0  0  0  0  0  0  0  0 10
   -0.2787    3.2276    7.9613 N   0  0  0  0  0  0  0  0  0 11
    0.1345    2.9830    7.1507 H   0  0  0  0  0  0  0  0  0 12
    3.8435    2.8845    8.6397 H   0  0  0  0  0  0  0  0  0 13
    5.9766    3.0726    7.6520 H   0  0  0  0  0  0  0  0  0 14
    2.2100    2.0872    9.8914 H   0  0  0  0  0  0  0  0  0 15
    5.7066    1.5014    6.3886 C   0  0  0  0  0  0  0  0  0 16
    7.0037    1.5936    5.7805 N   0  3  0  0  0  0  0  0  0 17
    7.3160    0.7991    4.8949 O   0  5  0  0  0  0  0  0  0 18
    7.7696    2.4930    6.1656 O   0  0  0  0  0  0  0  0  0 19
    5.1118   -0.0806    5.2551 H   0  0  0  0  0  0  0  0  0 20
    2.9883   -0.1971    6.2072 H   0  0  0  0  0  0  0  0  0 21
    1.5950    3.8788    8.3532 H   0  0  0  0  0  0  0  0  0 22
    0.5093    3.8161    9.6707 H   0  0  0  0  0  0  0  0  0 23
   -0.8936    2.5709    8.2960 H   0  0  0  0  0  0  0  0  0 24
  2  1  1  0  0  0
  3  2  1  0  0  0
  4  1  2  0  0  0
  5  4  1  0  0  0
  6  1  1  0  0  0
  7  6  2  0  0  0
  8  2  1  0  0  0
  9  8  1  0  0  0
 10  8  1  0  0  0
 11 10  1  0  0  0
 12 11  1  0  0  0
 13  6  1  0  0  0
 14  7  1  0  0  0
 15  8  1  0  0  0
 16  5  2  0  0  0
 16  7  1  0  0  0
 17 16  1  0  0  0
 18 17  1  0  0  0
 19 17  2  0  0  0
 20  5  1  0  0  0
 21  4  1  0  0  0
 22 10  1  0  0  0
 23 10  1  0  0  0
 24 11  1  0  0  0
M  END
