KIKNEY
  MatStudio         3D                             0

 21 21  0  0  0  0  0  0  0  0999 V2000
    1.7890   12.5369    7.2163 O   0  0  0  0  0  0  0  0  0  1
    2.0086   12.8479    8.4033 N   0  3  0  0  0  0  0  0  0  2
    2.6704   13.8547    8.6976 O   0  5  0  0  0  0  0  0  0  3
    1.4925   12.0400    9.3968 C   0  0  0  0  0  0  0  0  0  4
    0.7476   10.8626    9.1807 C   0  0  0  0  0  0  0  0  0  5
    0.4295   10.2971    8.0143 N   0  0  0  0  0  0  0  0  0  6
   -0.3774    9.1535    7.9485 N   0  0  0  0  0  0  0  0  0  7
    0.7232   10.6862    7.3173 H   0  0  0  0  0  0  0  0  0  8
    0.4386   10.4160   10.4105 N   0  0  0  0  0  0  0  0  0  9
   -0.2402    9.2066   10.8428 C   0  0  0  0  0  0  0  0  0 10
   -1.1389    9.2780   10.6813 H   0  0  0  0  0  0  0  0  0 11
    1.5736   12.2253   10.8012 C   0  0  0  0  0  0  0  0  0 12
    2.2287   13.3084   11.5723 C   0  0  0  0  0  0  0  0  0 13
    1.9868   14.1048   11.2874 H   0  0  0  0  0  0  0  0  0 14
    0.0831    8.4663    7.6957 H   0  0  0  0  0  0  0  0  0 15
    0.9407   11.2503   11.4035 N   0  0  0  0  0  0  0  0  0 16
   -0.8978    9.2751    7.2980 H   0  0  0  0  0  0  0  0  0 17
    1.9452   13.3047   12.5087 H   0  0  0  0  0  0  0  0  0 18
    3.2254   13.2917   11.4277 H   0  0  0  0  0  0  0  0  0 19
   -0.0249    9.0485   11.6464 H   0  0  0  0  0  0  0  0  0 20
    0.0831    8.4893   10.4239 H   0  0  0  0  0  0  0  0  0 21
  2  1  2  0  0  0
  3  2  1  0  0  0
  4  2  1  0  0  0
  5  4  2  0  0  0
  6  5  1  0  0  0
  7  6  1  0  0  0
  8  6  1  0  0  0
  9  5  1  0  0  0
 10  9  1  0  0  0
 11 10  1  0  0  0
 12  4  1  0  0  0
 13 12  1  0  0  0
 14 13  1  0  0  0
 15  7  1  0  0  0
 16 12  2  0  0  0
 16  9  1  0  0  0
 17  7  1  0  0  0
 18 13  1  0  0  0
 19 13  1  0  0  0
 20 10  1  0  0  0
 21 10  1  0  0  0
M  END
