KOTSIV
  MatStudio         3D                             0

 20 20  0  0  0  0  0  0  0  0999 V2000
    5.5578    2.2575    7.5470 C   0  0  0  0  0  0  0  0  0  1
    5.0917    1.7420    6.3248 C   0  0  0  0  0  0  0  0  0  2
    4.6937    2.5776    5.3226 C   0  0  0  0  0  0  0  0  0  3
    4.7560    3.9499    5.5256 C   0  0  0  0  0  0  0  0  0  4
    5.1930    4.4850    6.7177 C   0  0  0  0  0  0  0  0  0  5
    5.5868    3.6388    7.7236 C   0  0  0  0  0  0  0  0  0  6
    5.9728    1.4203    8.5226 N   0  0  0  0  0  0  0  0  0  7
    6.2630    1.7526    9.3070 H   0  0  0  0  0  0  0  0  0  8
    5.8927    4.0041    8.5563 H   0  0  0  0  0  0  0  0  0  9
    5.0960    0.3803    6.2640 O   0  0  0  0  0  0  0  0  0 10
    4.6200   -0.1999    5.0630 C   0  0  0  0  0  0  0  0  0 11
    4.3438    4.8141    4.4648 N   0  3  0  0  0  0  0  0  0 12
    3.8955    4.3226    3.4310 O   0  0  0  0  0  0  0  0  0 13
    5.9485    0.5304    8.3922 H   0  0  0  0  0  0  0  0  0 14
    5.2093    5.4376    6.8397 H   0  0  0  0  0  0  0  0  0 15
    4.3928    2.2198    4.4838 H   0  0  0  0  0  0  0  0  0 16
    4.4260    6.0360    4.6137 O   0  5  0  0  0  0  0  0  0 17
    4.6593   -1.1581    5.1164 H   0  0  0  0  0  0  0  0  0 18
    5.1976    0.1051    4.3600 H   0  0  0  0  0  0  0  0  0 19
    3.7183    0.0729    4.8775 H   0  0  0  0  0  0  0  0  0 20
  2  1  2  0  0  0
  3  2  1  0  0  0
  4  3  2  0  0  0
  5  4  1  0  0  0
  6  1  1  0  0  0
  6  5  2  0  0  0
  7  1  1  0  0  0
  8  7  1  0  0  0
  9  6  1  0  0  0
 10  2  1  0  0  0
 11 10  1  0  0  0
 12  4  1  0  0  0
 13 12  2  0  0  0
 14  7  1  0  0  0
 15  5  1  0  0  0
 16  3  1  0  0  0
 17 12  1  0  0  0
 18 11  1  0  0  0
 19 11  1  0  0  0
 20 11  1  0  0  0
M  END
