KOVHAE
  MatStudio         3D                             0

 18 18  0  0  0  0  0  0  0  0999 V2000
    1.1953    3.7012    2.5906 C   0  0  0  0  0  0  0  0  0  1
    1.0443    4.8148    3.4501 N   0  3  0  0  0  0  0  0  0  2
    1.1766    3.8623    1.1698 C   0  0  0  0  0  0  0  0  0  3
    1.2855    2.8813    0.2906 N   0  0  0  0  0  0  0  0  0  4
    1.2881    3.3931   -1.0727 C   0  0  0  0  0  0  0  0  0  5
    2.1366    3.2462   -1.4952 H   0  0  0  0  0  0  0  0  0  6
    1.0302    4.8504   -0.8842 C   0  0  0  0  0  0  0  0  0  7
    1.0663    5.0233    0.5512 N   0  0  0  0  0  0  0  0  0  8
    0.6100    5.8621    2.9506 O   0  0  0  0  0  0  0  0  0  9
    1.3529    4.7603    4.6252 O   0  5  0  0  0  0  0  0  0 10
    1.3737    2.4358    3.1754 N   0  3  0  0  0  0  0  0  0 11
    1.5995    1.4833    2.4200 O   0  0  0  0  0  0  0  0  0 12
    1.2935    2.2652    4.3891 O   0  5  0  0  0  0  0  0  0 13
    1.3910    2.0733    0.4544 H   0  0  0  0  0  0  0  0  0 14
    0.5940    2.9856   -1.5965 H   0  0  0  0  0  0  0  0  0 15
    0.1710    5.0944   -1.2364 H   0  0  0  0  0  0  0  0  0 16
    1.7117    5.3764   -1.3093 H   0  0  0  0  0  0  0  0  0 17
    0.8959    5.8100    0.8957 H   0  0  0  0  0  0  0  0  0 18
  2  1  1  0  0  0
  3  1  2  0  0  0
  4  3  1  0  0  0
  5  4  1  0  0  0
  6  5  1  0  0  0
  7  5  1  0  0  0
  8  3  1  0  0  0
  8  7  1  0  0  0
  9  2  2  0  0  0
 10  2  1  0  0  0
 11  1  1  0  0  0
 12 11  2  0  0  0
 13 11  1  0  0  0
 14  4  1  0  0  0
 15  5  1  0  0  0
 16  7  1  0  0  0
 17  7  1  0  0  0
 18  8  1  0  0  0
M  END
