LAHCEC
  MatStudio         3D                             0

 22 22  0  0  0  0  0  0  0  0999 V2000
    1.9885    5.3009   -3.0116 O   0  0  0  0  0  0  0  0  0  1
    2.7784    6.2298   -3.1512 N   0  3  0  0  0  0  0  0  0  2
    2.5644    7.1528   -3.9590 O   0  5  0  0  0  0  0  0  0  3
    3.9723    6.2659   -2.3597 C   0  0  0  0  0  0  0  0  0  4
    4.2200    5.2700   -1.4410 C   0  0  0  0  0  0  0  0  0  5
    5.3727    5.3149   -0.6895 C   0  0  0  0  0  0  0  0  0  6
    6.2973    6.3511   -0.8629 C   0  0  0  0  0  0  0  0  0  7
    6.0150    7.3537   -1.7937 C   0  0  0  0  0  0  0  0  0  8
    7.4575    6.3908   -0.1611 N   0  0  0  0  0  0  0  0  0  9
    4.8669    7.3117   -2.5314 C   0  0  0  0  0  0  0  0  0 10
    7.7996    5.4355    0.8521 C   0  0  0  0  0  0  0  0  0 11
    9.1234    5.8113    1.4810 C   0  0  0  0  0  0  0  0  0 12
    9.4759    4.8937    2.3756 O   0  0  0  0  0  0  0  0  0 13
    9.7526    6.7875    1.2208 O   0  0  0  0  0  0  0  0  0 14
    5.5344    4.6394   -0.0627 H   0  0  0  0  0  0  0  0  0 15
    3.6367    4.5985   -1.3377 H   0  0  0  0  0  0  0  0  0 16
    4.6276    7.9877   -3.1445 H   0  0  0  0  0  0  0  0  0 17
    6.6095    8.0510   -1.8788 H   0  0  0  0  0  0  0  0  0 18
    7.9745    7.0460   -0.2625 H   0  0  0  0  0  0  0  0  0 19
   10.3023    5.1518    2.6904 H   0  0  0  0  0  0  0  0  0 20
    7.1705    5.4637    1.5608 H   0  0  0  0  0  0  0  0  0 21
    7.8716    4.5958    0.5217 H   0  0  0  0  0  0  0  0  0 22
  2  1  2  0  0  0
  3  2  1  0  0  0
  4  2  1  0  0  0
  5  4  2  0  0  0
  6  5  1  0  0  0
  7  6  2  0  0  0
  8  7  1  0  0  0
  9  7  1  0  0  0
 10  8  2  0  0  0
 10  4  1  0  0  0
 11  9  1  0  0  0
 12 11  1  0  0  0
 13 12  1  0  0  0
 14 12  2  0  0  0
 15  6  1  0  0  0
 16  5  1  0  0  0
 17 10  1  0  0  0
 18  8  1  0  0  0
 19  9  1  0  0  0
 20 13  1  0  0  0
 21 11  1  0  0  0
 22 11  1  0  0  0
M  END
