LOLFEX
  MatStudio         3D                             0

 21 21  0  0  0  0  0  0  0  0999 V2000
    4.9462    1.4277    4.1555 N   0  0  0  0  0  0  0  0  0  1
    5.1155    0.8140    2.9582 N   0  3  0  0  0  0  0  0  0  2
    6.2298    0.3748    2.7016 O   0  5  0  0  0  0  0  0  0  3
    4.1494    0.6608    2.2280 O   0  0  0  0  0  0  0  0  0  4
    3.8017    2.3085    4.3205 C   0  0  0  0  0  0  0  0  0  5
    3.4653    2.2421    5.2279 H   0  0  0  0  0  0  0  0  0  6
    3.0934    2.0417    3.7144 H   0  0  0  0  0  0  0  0  0  7
    6.1255    1.7857    4.9282 C   0  0  0  0  0  0  0  0  0  8
    5.9562    1.6177    5.8679 H   0  0  0  0  0  0  0  0  0  9
    6.8701    1.2274    4.6537 H   0  0  0  0  0  0  0  0  0 10
    6.4808    3.1817    4.7466 N   0  0  0  0  0  0  0  0  0 11
    7.4817    3.4629    3.8502 N   0  3  0  0  0  0  0  0  0 12
    8.2316    2.5604    3.5353 O   0  5  0  0  0  0  0  0  0 13
    7.5988    4.6228    3.4727 O   0  0  0  0  0  0  0  0  0 14
    5.3915    4.1437    4.8910 C   0  0  0  0  0  0  0  0  0 15
    5.6961    5.0241    4.6213 H   0  0  0  0  0  0  0  0  0 16
    5.1193    4.1902    5.8215 H   0  0  0  0  0  0  0  0  0 17
    4.2099    3.7269    4.0323 C   0  0  0  0  0  0  0  0  0 18
    3.4532    4.3275    4.1986 H   0  0  0  0  0  0  0  0  0 19
    4.5501    3.7589    2.6644 O   0  0  0  0  0  0  0  0  0 20
    4.8683    4.4917    2.4788 H   0  0  0  0  0  0  0  0  0 21
  2  1  1  0  0  0
  3  2  1  0  0  0
  4  2  2  0  0  0
  5  1  1  0  0  0
  6  5  1  0  0  0
  7  5  1  0  0  0
  8  1  1  0  0  0
  9  8  1  0  0  0
 10  8  1  0  0  0
 11  8  1  0  0  0
 12 11  1  0  0  0
 13 12  1  0  0  0
 14 12  2  0  0  0
 15 11  1  0  0  0
 16 15  1  0  0  0
 17 15  1  0  0  0
 18 15  1  0  0  0
 18  5  1  0  0  0
 19 18  1  0  0  0
 20 18  1  0  0  0
 21 20  1  0  0  0
M  END
