LORNAI
  MatStudio         3D                             0

 21 21  0  0  0  0  0  0  0  0999 V2000
    6.5534    5.2768   -0.2405 O   0  0  0  0  0  0  0  0  0  1
    6.1717    5.9013   -1.2026 N   0  3  0  0  0  0  0  0  0  2
    5.2430    6.7072   -1.1651 O   0  5  0  0  0  0  0  0  0  3
    6.8047    5.6625   -2.4854 C   0  0  0  0  0  0  0  0  0  4
    8.1963    5.5114   -2.5945 C   0  0  0  0  0  0  0  0  0  5
    9.1312    5.6524   -1.4054 C   0  0  0  0  0  0  0  0  0  6
   10.0354    5.4963   -1.6886 H   0  0  0  0  0  0  0  0  0  7
    8.6944    5.2768   -3.8681 C   0  0  0  0  0  0  0  0  0  8
   10.1979    5.1365   -4.0565 C   0  0  0  0  0  0  0  0  0  9
   10.6101    6.0035   -3.9194 H   0  0  0  0  0  0  0  0  0 10
   10.5902    4.6386   -5.3484 C   0  0  0  0  0  0  0  0  0 11
   10.5412    4.5372   -3.3755 H   0  0  0  0  0  0  0  0  0 12
    8.8906    5.0113   -0.7311 H   0  0  0  0  0  0  0  0  0 13
    9.0576    6.5388   -1.0433 H   0  0  0  0  0  0  0  0  0 14
   10.9151    4.2436   -6.3760 N   0  0  0  0  0  0  0  0  0 15
    5.9526    5.6006   -3.5909 C   0  0  0  0  0  0  0  0  0 16
    5.0376    5.7315   -3.4896 H   0  0  0  0  0  0  0  0  0 17
    6.4829    5.3437   -4.8275 C   0  0  0  0  0  0  0  0  0 18
    5.9265    5.2718   -5.5694 H   0  0  0  0  0  0  0  0  0 19
    7.8392    5.1948   -4.9705 C   0  0  0  0  0  0  0  0  0 20
    8.1963    5.0365   -5.8145 H   0  0  0  0  0  0  0  0  0 21
  2  1  2  0  0  0
  3  2  1  0  0  0
  4  2  1  0  0  0
  5  4  1  0  0  0
  6  5  1  0  0  0
  7  6  1  0  0  0
  8  5  2  0  0  0
  9  8  1  0  0  0
 10  9  1  0  0  0
 11  9  1  0  0  0
 12  9  1  0  0  0
 13  6  1  0  0  0
 14  6  1  0  0  0
 15 11  3  0  0  0
 16  4  2  0  0  0
 17 16  1  0  0  0
 18 16  1  0  0  0
 19 18  1  0  0  0
 20  8  1  0  0  0
 20 18  2  0  0  0
 21 20  1  0  0  0
M  END
