MNIANL05
  MatStudio         3D                             0

 16 16  0  0  0  0  0  0  0  0999 V2000
   12.0764    1.4851    3.7070 C   0  0  0  0  0  0  0  0  0  1
   12.9233    2.5664    3.5686 C   0  0  0  0  0  0  0  0  0  2
   12.6108    3.5248    2.5995 C   0  0  0  0  0  0  0  0  0  3
   13.6785    2.6555    4.1038 H   0  0  0  0  0  0  0  0  0  4
   13.4578    4.5977    2.3862 N   0  0  0  0  0  0  0  0  0  5
   13.2778    5.1712    1.7709 H   0  0  0  0  0  0  0  0  0  6
   11.4600    3.3480    1.8332 C   0  0  0  0  0  0  0  0  0  7
   11.2371    3.9813    1.1895 H   0  0  0  0  0  0  0  0  0  8
   14.1645    4.6907    2.8682 H   0  0  0  0  0  0  0  0  0  9
   12.4158    0.4942    4.7378 N   0  3  0  0  0  0  0  0  0 10
   11.6290   -0.4350    4.9208 O   0  5  0  0  0  0  0  0  0 11
   13.4402    0.6216    5.3749 O   0  0  0  0  0  0  0  0  0 12
   10.9363    1.2972    2.9746 C   0  0  0  0  0  0  0  0  0 13
   10.3833    0.5631    3.1160 H   0  0  0  0  0  0  0  0  0 14
   10.6451    2.2498    2.0141 C   0  0  0  0  0  0  0  0  0 15
    9.8896    2.1483    1.4825 H   0  0  0  0  0  0  0  0  0 16
  2  1  2  0  0  0
  3  2  1  0  0  0
  4  2  1  0  0  0
  5  3  1  0  0  0
  6  5  1  0  0  0
  7  3  2  0  0  0
  8  7  1  0  0  0
  9  5  1  0  0  0
 10  1  1  0  0  0
 11 10  1  0  0  0
 12 10  2  0  0  0
 13  1  1  0  0  0
 14 13  1  0  0  0
 15  7  1  0  0  0
 15 13  2  0  0  0
 16 15  1  0  0  0
M  END
