MNIMET
  MatStudio         3D                             0

 21 21  0  0  0  0  0  0  0  0999 V2000
    2.0118    3.6305    0.9693 N   0  0  0  0  0  0  0  0  0  1
    1.5217    2.5390    0.3414 C   0  0  0  0  0  0  0  0  0  2
    1.0953    2.8313   -0.8875 N   0  0  0  0  0  0  0  0  0  3
    1.3281    4.1575   -1.0648 C   0  0  0  0  0  0  0  0  0  4
    1.8877    4.6661    0.0613 C   0  0  0  0  0  0  0  0  0  5
    2.2628    6.0098    0.2907 N   0  3  0  0  0  0  0  0  0  6
    2.6836    6.3492    1.3867 O   0  5  0  0  0  0  0  0  0  7
    2.1499    6.7811   -0.6554 O   0  0  0  0  0  0  0  0  0  8
    1.4754    1.1849    0.9347 C   0  0  0  0  0  0  0  0  0  9
    2.5756    3.6558    2.3322 C   0  0  0  0  0  0  0  0  0 10
    1.5806    4.1496    3.3593 C   0  0  0  0  0  0  0  0  0 11
    0.4425    3.3120    3.4388 O   0  0  0  0  0  0  0  0  0 12
    1.0939    4.6417   -1.8423 H   0  0  0  0  0  0  0  0  0 13
    3.4009    4.2054    2.3082 H   0  0  0  0  0  0  0  0  0 14
    0.9256    1.1517    1.7600 H   0  0  0  0  0  0  0  0  0 15
    2.3561    0.8550    1.0703 H   0  0  0  0  0  0  0  0  0 16
    1.2622    5.0605    3.1434 H   0  0  0  0  0  0  0  0  0 17
    2.0826    4.1880    4.2067 H   0  0  0  0  0  0  0  0  0 18
    2.8470    2.7222    2.5057 H   0  0  0  0  0  0  0  0  0 19
    0.5329    2.7484    4.0597 H   0  0  0  0  0  0  0  0  0 20
    1.0659    0.5933    0.3389 H   0  0  0  0  0  0  0  0  0 21
  2  1  1  0  0  0
  3  2  2  0  0  0
  4  3  1  0  0  0
  5  1  1  0  0  0
  5  4  2  0  0  0
  6  5  1  0  0  0
  7  6  1  0  0  0
  8  6  2  0  0  0
  9  2  1  0  0  0
 10  1  1  0  0  0
 11 10  1  0  0  0
 12 11  1  0  0  0
 13  4  1  0  0  0
 14 10  1  0  0  0
 15  9  1  0  0  0
 16  9  1  0  0  0
 17 11  1  0  0  0
 18 11  1  0  0  0
 19 10  1  0  0  0
 20 12  1  0  0  0
 21  9  1  0  0  0
M  END
