MOTJOU
  MatStudio         3D                             0

 23 23  0  0  0  0  0  0  0  0999 V2000
    2.3724    0.8202    6.0654 C   0  0  0  0  0  0  0  0  0  1
    1.7160    1.5841    5.1231 C   0  0  0  0  0  0  0  0  0  2
    0.3621    1.7310    5.2023 C   0  0  0  0  0  0  0  0  0  3
   -0.1349    2.2631    4.5562 H   0  0  0  0  0  0  0  0  0  4
   -0.3544    1.1334    6.2134 C   0  0  0  0  0  0  0  0  0  5
    0.2988    0.3529    7.1390 C   0  0  0  0  0  0  0  0  0  6
   -0.1868   -0.0554    7.8623 H   0  0  0  0  0  0  0  0  0  7
    2.2516    2.0137    4.4048 H   0  0  0  0  0  0  0  0  0  8
   -1.6984    1.3755    6.2085 O   0  0  0  0  0  0  0  0  0  9
    3.7873    0.6224    5.9484 N   0  0  0  0  0  0  0  0  0 10
    4.6127    1.3929    6.6706 N   0  3  0  0  0  0  0  0  0 11
    4.3589   -0.4147    5.1333 C   0  0  0  0  0  0  0  0  0 12
    4.9390   -0.9329    5.6466 H   0  0  0  0  0  0  0  0  0 13
    3.6420   -0.9884    4.8205 H   0  0  0  0  0  0  0  0  0 14
    4.8559    0.0462    4.4323 H   0  0  0  0  0  0  0  0  0 15
    4.1254    2.2683    7.3796 O   0  5  0  0  0  0  0  0  0 16
   -2.4819    0.8674    7.2815 C   0  0  0  0  0  0  0  0  0 17
   -2.3968   -0.1386    7.3537 H   0  0  0  0  0  0  0  0  0 18
   -2.0856    1.1916    8.2339 H   0  0  0  0  0  0  0  0  0 19
   -3.3618    1.2839    7.1230 H   0  0  0  0  0  0  0  0  0 20
    5.8166    1.1688    6.5797 O   0  0  0  0  0  0  0  0  0 21
    1.6674    0.1995    7.0569 C   0  0  0  0  0  0  0  0  0 22
    2.1271   -0.3602    7.6050 H   0  0  0  0  0  0  0  0  0 23
  2  1  2  0  0  0
  3  2  1  0  0  0
  4  3  1  0  0  0
  5  3  2  0  0  0
  6  5  1  0  0  0
  7  6  1  0  0  0
  8  2  1  0  0  0
  9  5  1  0  0  0
 10  1  1  0  0  0
 11 10  1  0  0  0
 12 10  1  0  0  0
 13 12  1  0  0  0
 14 12  1  0  0  0
 15 12  1  0  0  0
 16 11  1  0  0  0
 17  9  1  0  0  0
 18 17  1  0  0  0
 19 17  1  0  0  0
 20 17  1  0  0  0
 21 11  2  0  0  0
 22  1  1  0  0  0
 22  6  2  0  0  0
 23 22  1  0  0  0
M  END
