MUZNEC
  MatStudio         3D                             0

 13 13  0  0  0  0  0  0  0  0999 V2000
    4.9617    4.7946   11.4381 N   0  3  0  0  0  0  0  0  0  1
    4.9033    5.9826   11.1268 O   0  0  0  0  0  0  0  0  0  2
    5.9045    4.2788   12.0086 O   0  5  0  0  0  0  0  0  0  3
    3.8402    3.9714   11.1273 C   0  0  0  0  0  0  0  0  0  4
    2.7074    4.5165   10.6440 N   0  0  0  0  0  0  0  0  0  5
    1.8613    3.5568   10.4656 N   0  0  0  0  0  0  0  0  0  6
    1.0605    3.6363   10.1643 H   0  0  0  0  0  0  0  0  0  7
    2.4588    2.4129   10.8355 N   0  0  0  0  0  0  0  0  0  8
    3.7086    2.6161   11.2638 C   0  0  0  0  0  0  0  0  0  9
    4.5992    1.5378   11.7483 C   0  0  0  0  0  0  0  0  0 10
    5.4932    1.6949   11.4351 H   0  0  0  0  0  0  0  0  0 11
    4.2881    0.6923   11.4171 H   0  0  0  0  0  0  0  0  0 12
    4.5940    1.5260   12.7086 H   0  0  0  0  0  0  0  0  0 13
  1  2  2  0  0  0
  1  3  1  0  0  0
  1  4  1  0  0  0
  4  5  2  0  0  0
  4  9  1  0  0  0
  5  6  1  0  0  0
  6  7  1  0  0  0
  6  8  1  0  0  0
  8  9  2  0  0  0
  9 10  1  0  0  0
 10 11  1  0  0  0
 10 12  1  0  0  0
 10 13  1  0  0  0
M  END
