NABMOS
  MatStudio         3D                             0

 17 17  0  0  0  0  0  0  0  0999 V2000
    0.2104    6.1383   12.4693 N   0  0  0  0  0  0  0  0  0  1
   -0.1232    5.1977   11.4693 N   0  3  0  0  0  0  0  0  0  2
    0.7926    4.6332   10.9652 O   0  5  0  0  0  0  0  0  0  3
    1.5493    6.2386   13.0088 C   0  0  0  0  0  0  0  0  0  4
    1.3563    7.2522   14.0652 C   0  0  0  0  0  0  0  0  0  5
   -0.0959    7.1574   14.4356 N   0  0  0  0  0  0  0  0  0  6
   -0.6367    7.9846   15.2698 N   0  3  0  0  0  0  0  0  0  7
   -1.8895    8.0020   15.3632 O   0  5  0  0  0  0  0  0  0  8
    0.1581    8.7388   15.8995 O   0  0  0  0  0  0  0  0  0  9
   -0.9191    6.6070   13.3228 C   0  0  0  0  0  0  0  0  0 10
   -1.3683    5.0735   11.3276 O   0  0  0  0  0  0  0  0  0 11
   -1.4904    5.8898   13.6063 H   0  0  0  0  0  0  0  0  0 12
   -1.4457    7.2849   12.8929 H   0  0  0  0  0  0  0  0  0 13
    1.5624    8.1307   13.7367 H   0  0  0  0  0  0  0  0  0 14
    1.9058    7.0582   14.8270 H   0  0  0  0  0  0  0  0  0 15
    2.1730    6.5438   12.3469 H   0  0  0  0  0  0  0  0  0 16
    1.8491    5.4015   13.3712 H   0  0  0  0  0  0  0  0  0 17
  2  1  1  0  0  0
  3  2  1  0  0  0
  4  1  1  0  0  0
  5  4  1  0  0  0
  6  5  1  0  0  0
  7  6  1  0  0  0
  8  7  1  0  0  0
  9  7  2  0  0  0
 10  1  1  0  0  0
 10  6  1  0  0  0
 11  2  2  0  0  0
 12 10  1  0  0  0
 13 10  1  0  0  0
 14  5  1  0  0  0
 15  5  1  0  0  0
 16  4  1  0  0  0
 17  4  1  0  0  0
M  END
