NAGGOU
  MatStudio         3D                             0

 19 20  0  0  0  0  0  0  0  0999 V2000
    6.0950    1.7604   12.7259 C   0  0  0  0  0  0  0  0  0  1
    5.6486    2.1461   13.9630 C   0  0  0  0  0  0  0  0  0  2
    5.6021    3.0470   14.1879 H   0  0  0  0  0  0  0  0  0  3
    5.2723    1.1829   14.8657 C   0  0  0  0  0  0  0  0  0  4
    5.3543   -0.1480   14.5010 C   0  0  0  0  0  0  0  0  0  5
    5.7940   -0.5291   13.2466 C   0  0  0  0  0  0  0  0  0  6
    5.8331   -1.4284   13.0131 H   0  0  0  0  0  0  0  0  0  7
    4.9661    1.4230   15.7111 H   0  0  0  0  0  0  0  0  0  8
    6.1725    0.4403   12.3488 C   0  0  0  0  0  0  0  0  0  9
    6.4757    0.2073   11.5011 H   0  0  0  0  0  0  0  0  0 10
    6.4786    2.7984   11.7601 N   0  3  0  0  0  0  0  0  0 11
    4.9701   -1.1533   15.4389 N   0  0  0  0  0  0  0  0  0 12
    5.1609   -2.4630   15.1772 N   0  0  0  0  0  0  0  0  0 13
    4.6939   -3.1101   16.1876 N   0  0  0  0  0  0  0  0  0 14
    4.3885   -1.0692   16.6299 C   0  0  0  0  0  0  0  0  0 15
    4.1501   -0.2759   17.0528 H   0  0  0  0  0  0  0  0  0 16
    4.2018   -2.2599   17.1179 N   0  0  0  0  0  0  0  0  0 17
    6.3813    3.9611   12.0870 O   0  5  0  0  0  0  0  0  0 18
    6.8763    2.4485   10.6736 O   0  0  0  0  0  0  0  0  0 19
  2  1  2  0  0  0
  3  2  1  0  0  0
  4  2  1  0  0  0
  5  4  2  0  0  0
  6  5  1  0  0  0
  7  6  1  0  0  0
  8  4  1  0  0  0
  9  1  1  0  0  0
  9  6  2  0  0  0
 10  9  1  0  0  0
 11  1  1  0  0  0
 12  5  1  0  0  0
 13 12  1  0  0  0
 14 13  2  0  0  0
 15 12  1  0  0  0
 16 15  1  0  0  0
 17 14  1  0  0  0
 17 15  2  0  0  0
 18 11  1  0  0  0
 19 11  2  0  0  0
M  END
