NBARBA
  MatStudio         3D                             0

 15 15  0  0  0  0  0  0  0  0999 V2000
    1.0113    0.7402    1.6088 C   0  0  0  0  0  0  0  0  0  1
    1.0849    1.4547    0.4471 N   0  0  0  0  0  0  0  0  0  2
    0.7448    1.1585   -0.2443 H   0  0  0  0  0  0  0  0  0  3
    1.6965    2.6801    0.2631 C   0  0  0  0  0  0  0  0  0  4
    2.2891    3.2287    1.4691 C   0  0  0  0  0  0  0  0  0  5
    2.2270    2.5023    2.6736 C   0  0  0  0  0  0  0  0  0  6
    1.6477    1.2850    2.6806 N   0  0  0  0  0  0  0  0  0  7
    1.7213    0.9393    3.4307 H   0  0  0  0  0  0  0  0  0  8
    2.9950    4.4448    1.4556 N   0  3  0  0  0  0  0  0  0  9
    0.4295   -0.3350    1.6881 O   0  0  0  0  0  0  0  0  0 10
    2.7053    2.8962    3.8181 O   0  0  0  0  0  0  0  0  0 11
    3.1779    3.7134    3.5138 H   0  0  0  0  0  0  0  0  0 12
    1.6568    3.2199   -0.8334 O   0  0  0  0  0  0  0  0  0 13
    3.4617    4.8988    2.5324 O   0  0  0  0  0  0  0  0  0 14
    3.1621    5.0578    0.4113 O   0  5  0  0  0  0  0  0  0 15
  2  1  1  0  0  0
  3  2  1  0  0  0
  4  2  1  0  0  0
  5  4  1  0  0  0
  6  5  2  0  0  0
  7  6  1  0  0  0
  7  1  1  0  0  0
  8  7  1  0  0  0
  9  5  1  0  0  0
 10  1  2  0  0  0
 11  6  1  0  0  0
 12 11  1  0  0  0
 13  4  2  0  0  0
 14  9  2  0  0  0
 15  9  1  0  0  0
M  END
