NIMFOE
  MatStudio         3D                             0

 14 14  0  0  0  0  0  0  0  0999 V2000
    4.0658    0.9305   -1.3667 O   0  0  0  0  0  0  0  0  0  1
    4.6480    0.9489   -0.2939 C   0  0  0  0  0  0  0  0  0  2
    4.0903    0.3141    0.8078 N   0  0  0  0  0  0  0  0  0  3
    5.9184    1.5712    0.0098 C   0  0  0  0  0  0  0  0  0  4
    6.4317    1.5131    1.2603 C   0  0  0  0  0  0  0  0  0  5
    5.8039    0.8685    2.2458 N   0  0  0  0  0  0  0  0  0  6
    6.1696    0.8045    3.0440 H   0  0  0  0  0  0  0  0  0  7
    7.2349    1.9386    1.5013 H   0  0  0  0  0  0  0  0  0  8
    6.6937    2.2459   -0.9980 N   0  3  0  0  0  0  0  0  0  9
    6.3286    2.2061   -2.1633 O   0  0  0  0  0  0  0  0  0 10
    7.7249    2.8032   -0.6468 O   0  5  0  0  0  0  0  0  0 11
    4.6070    0.2113    2.0711 C   0  0  0  0  0  0  0  0  0 12
    4.0641   -0.4149    2.9630 O   0  0  0  0  0  0  0  0  0 13
    3.3098   -0.0872    0.6448 H   0  0  0  0  0  0  0  0  0 14
  1  2  2  0  0  0
  2  3  1  0  0  0
  2  4  1  0  0  0
  3 12  1  0  0  0
  3 14  1  0  0  0
  4  5  2  0  0  0
  4  9  1  0  0  0
  5  6  1  0  0  0
  5  8  1  0  0  0
  6  7  1  0  0  0
  6 12  1  0  0  0
  9 10  2  0  0  0
  9 11  1  0  0  0
 12 13  2  0  0  0
M  END
