NIVPAJ
  MatStudio         3D                             0

 20 20  0  0  0  0  0  0  0  0999 V2000
    2.4264    6.3697    6.4393 C   0  0  0  0  0  0  0  0  0  1
    1.9505    6.5370    5.1691 C   0  0  0  0  0  0  0  0  0  2
    1.1133    6.3120    4.9521 H   0  0  0  0  0  0  0  0  0  3
    3.7381    6.7621    6.7522 C   0  0  0  0  0  0  0  0  0  4
    4.0906    6.6234    7.6046 H   0  0  0  0  0  0  0  0  0  5
    4.5340    7.3104    5.7904 C   0  0  0  0  0  0  0  0  0  6
    5.4074    7.5869    6.0264 H   0  0  0  0  0  0  0  0  0  7
    1.5637    5.7833    7.5231 C   0  0  0  0  0  0  0  0  0  8
    4.0499    7.4823    4.4800 C   0  0  0  0  0  0  0  0  0  9
    4.9360    8.0598    3.5276 N   0  3  0  0  0  0  0  0  0 10
    4.5512    8.2154    2.3500 O   0  0  0  0  0  0  0  0  0 11
    6.0652    8.4023    3.8689 O   0  5  0  0  0  0  0  0  0 12
    2.0485    5.0988    8.0165 H   0  0  0  0  0  0  0  0  0 13
    1.2851    6.4676    8.1426 H   0  0  0  0  0  0  0  0  0 14
    2.7343    7.0997    4.1360 C   0  0  0  0  0  0  0  0  0 15
    2.1929    7.2208    2.9098 N   0  0  0  0  0  0  0  0  0 16
    1.3678    7.0799    2.8242 H   0  0  0  0  0  0  0  0  0 17
    2.6274    7.6970    2.2973 H   0  0  0  0  0  0  0  0  0 18
    0.3760    5.2619    7.0095 O   0  0  0  0  0  0  0  0  0 19
   -0.2608    5.2194    7.6199 H   0  0  0  0  0  0  0  0  0 20
  2  1  1  0  0  0
  3  2  1  0  0  0
  4  1  2  0  0  0
  5  4  1  0  0  0
  6  4  1  0  0  0
  7  6  1  0  0  0
  8  1  1  0  0  0
  9  6  2  0  0  0
 10  9  1  0  0  0
 11 10  2  0  0  0
 12 10  1  0  0  0
 13  8  1  0  0  0
 14  8  1  0  0  0
 15  9  1  0  0  0
 15  2  2  0  0  0
 16 15  1  0  0  0
 17 16  1  0  0  0
 18 16  1  0  0  0
 19  8  1  0  0  0
 20 19  1  0  0  0
M  END
