NTBZAM01
  MatStudio         3D                             0

 18 18  0  0  0  0  0  0  0  0999 V2000
    3.9879    5.8059    5.4672 O   0  0  0  0  0  0  0  0  0  1
    4.6265    5.0673    6.2339 C   0  0  0  0  0  0  0  0  0  2
    4.8739    5.4146    7.5031 N   0  0  0  0  0  0  0  0  0  3
    5.1414    3.7482    5.7255 C   0  0  0  0  0  0  0  0  0  4
    5.8066    2.8174    6.5291 C   0  0  0  0  0  0  0  0  0  5
    4.8980    3.4532    4.3785 C   0  0  0  0  0  0  0  0  0  6
    4.4131    4.0919    3.8430 H   0  0  0  0  0  0  0  0  0  7
    5.9891    2.9201    7.4670 H   0  0  0  0  0  0  0  0  0  8
    4.5085    6.1660    7.8213 H   0  0  0  0  0  0  0  0  0  9
    5.3056    2.2415    3.8319 C   0  0  0  0  0  0  0  0  0 10
    5.1390    2.0197    2.8773 H   0  0  0  0  0  0  0  0  0 11
    5.9681    1.3418    4.6559 C   0  0  0  0  0  0  0  0  0 12
    6.3992    0.0573    4.0885 N   0  3  0  0  0  0  0  0  0 13
    6.0295   -0.2256    2.9498 O   0  5  0  0  0  0  0  0  0 14
    7.1025   -0.6792    4.7736 O   0  0  0  0  0  0  0  0  0 15
    6.2294    1.6016    5.9935 C   0  0  0  0  0  0  0  0  0 16
    6.6551    0.9677    6.5105 H   0  0  0  0  0  0  0  0  0 17
    5.2987    4.8875    8.0951 H   0  0  0  0  0  0  0  0  0 18
  2  1  2  0  0  0
  3  2  1  0  0  0
  4  2  1  0  0  0
  5  4  1  0  0  0
  6  4  2  0  0  0
  7  6  1  0  0  0
  8  5  1  0  0  0
  9  3  1  0  0  0
 10  6  1  0  0  0
 11 10  1  0  0  0
 12 10  2  0  0  0
 13 12  1  0  0  0
 14 13  1  0  0  0
 15 13  2  0  0  0
 16  5  2  0  0  0
 16 12  1  0  0  0
 17 16  1  0  0  0
 18  3  1  0  0  0
M  END
