ONITAN02
  MatStudio         3D                             0

 16 16  0  0  0  0  0  0  0  0999 V2000
    8.1846    7.0756   -3.3672 C   0  0  0  0  0  0  0  0  0  1
    7.3047    8.1423   -3.6888 C   0  0  0  0  0  0  0  0  0  2
    6.8228    8.2644   -4.9921 C   0  0  0  0  0  0  0  0  0  3
    6.2982    9.0599   -5.1970 H   0  0  0  0  0  0  0  0  0  4
    7.1549    7.3873   -5.9568 C   0  0  0  0  0  0  0  0  0  5
    6.8360    7.3792   -6.8128 H   0  0  0  0  0  0  0  0  0  6
    8.0018    6.3236   -5.6595 C   0  0  0  0  0  0  0  0  0  7
    8.3097    5.6425   -6.3371 H   0  0  0  0  0  0  0  0  0  8
    8.5019    6.1880   -4.4163 C   0  0  0  0  0  0  0  0  0  9
    8.7173    6.8696   -2.1544 N   0  0  0  0  0  0  0  0  0 10
    8.5394    7.2098   -1.5608 H   0  0  0  0  0  0  0  0  0 11
    6.8629    9.0938   -2.7252 N   0  3  0  0  0  0  0  0  0 12
    7.2902    9.0143   -1.5650 O   0  0  0  0  0  0  0  0  0 13
    6.0770    9.9482   -3.0649 O   0  5  0  0  0  0  0  0  0 14
    9.3162    6.0908   -2.0538 H   0  0  0  0  0  0  0  0  0 15
    9.0820    5.5551   -4.1163 H   0  0  0  0  0  0  0  0  0 16
  2  1  2  0  0  0
  3  2  1  0  0  0
  4  3  1  0  0  0
  5  3  2  0  0  0
  6  5  1  0  0  0
  7  5  1  0  0  0
  8  7  1  0  0  0
  9  7  2  0  0  0
  9  1  1  0  0  0
 10  1  1  0  0  0
 11 10  1  0  0  0
 12  2  1  0  0  0
 13 12  2  0  0  0
 14 12  1  0  0  0
 15 10  1  0  0  0
 16  9  1  0  0  0
M  END
