OXIRUK
  MatStudio         3D                             0

 15 15  0  0  0  0  0  0  0  0999 V2000
    1.3771    7.8018    1.4779 N   0  0  0  0  0  0  0  0  0  1
    1.1559    8.1241    2.7670 N   0  0  0  0  0  0  0  0  0  2
    0.7342    9.3575    2.6377 C   0  0  0  0  0  0  0  0  0  3
    0.6580    9.8651    1.4112 N   0  0  0  0  0  0  0  0  0  4
    0.3646   10.1282    3.8132 N   0  3  0  0  0  0  0  0  0  5
    1.0808    8.8384    0.6948 C   0  0  0  0  0  0  0  0  0  6
    1.1577    8.7845   -0.2993 H   0  0  0  0  0  0  0  0  0  7
    0.5472    9.6254    4.8970 O   0  0  0  0  0  0  0  0  0  8
   -0.1287   11.2178    3.6416 O   0  5  0  0  0  0  0  0  0  9
    1.7984    6.4365    1.1497 C   0  0  0  0  0  0  0  0  0 10
    2.6678    6.3286    1.4907 H   0  0  0  0  0  0  0  0  0 11
    1.7920    6.2150   -0.2925 C   0  0  0  0  0  0  0  0  0 12
    1.7970    6.0159   -1.4456 C   0  0  0  0  0  0  0  0  0 13
    1.8337    5.8931   -2.4020 H   0  0  0  0  0  0  0  0  0 14
    1.1865    5.8239    1.6072 H   0  0  0  0  0  0  0  0  0 15
  2  1  1  0  0  0
  3  2  2  0  0  0
  4  3  1  0  0  0
  5  3  1  0  0  0
  6  1  1  0  0  0
  6  4  2  0  0  0
  7  6  1  0  0  0
  8  5  2  0  0  0
  9  5  1  0  0  0
 10  1  1  0  0  0
 11 10  1  0  0  0
 12 10  1  0  0  0
 13 12  3  0  0  0
 14 13  1  0  0  0
 15 10  1  0  0  0
M  END
