OXISEV
  MatStudio         3D                             0

 14 14  0  0  0  0  0  0  0  0999 V2000
    5.3105    2.1020    6.4923 N   0  0  0  0  0  0  0  0  0  1
    4.4281    1.2640    5.9034 N   0  0  0  0  0  0  0  0  0  2
    3.7843    2.0949    5.1278 C   0  0  0  0  0  0  0  0  0  3
    4.1428    3.3900    5.1524 N   0  0  0  0  0  0  0  0  0  4
    2.7102    1.6189    4.2773 N   0  3  0  0  0  0  0  0  0  5
    2.1080    2.4418    3.6178 O   0  5  0  0  0  0  0  0  0  6
    2.4645    0.4385    4.2832 O   0  0  0  0  0  0  0  0  0  7
    5.1180    3.3499    6.0367 C   0  0  0  0  0  0  0  0  0  8
    5.6538    4.0655    6.3359 H   0  0  0  0  0  0  0  0  0  9
    6.2409    1.6729    7.4746 C   0  0  0  0  0  0  0  0  0 10
    6.7410    2.3938    7.7599 H   0  0  0  0  0  0  0  0  0 11
    6.3180    0.4698    7.9098 C   0  0  0  0  0  0  0  0  0 12
    5.6999   -0.1865    7.6569 H   0  0  0  0  0  0  0  0  0 13
    7.0112    0.2357    8.5744 H   0  0  0  0  0  0  0  0  0 14
  1  2  1  0  0  0
  1  8  1  0  0  0
  1 10  1  0  0  0
  2  3  2  0  0  0
  3  4  1  0  0  0
  3  5  1  0  0  0
  4  8  2  0  0  0
  5  6  1  0  0  0
  5  7  2  0  0  0
  8  9  1  0  0  0
 10 11  1  0  0  0
 10 12  2  0  0  0
 12 13  1  0  0  0
 12 14  1  0  0  0
M  END
