PESJIH
  MatStudio         3D                             0

 22 22  0  0  0  0  0  0  0  0999 V2000
    3.2620   15.3513    7.1257 C   0  0  0  0  0  0  0  0  0  1
    3.5302   13.9978    7.1303 C   0  0  0  0  0  0  0  0  0  2
    3.2104   13.4719    7.8280 H   0  0  0  0  0  0  0  0  0  3
    2.5478   15.8900    8.1484 N   0  0  0  0  0  0  0  0  0  4
    3.7219   16.1158    6.0759 C   0  0  0  0  0  0  0  0  0  5
    4.4444   15.5113    5.0808 C   0  0  0  0  0  0  0  0  0  6
    4.7047   14.1989    5.1151 C   0  0  0  0  0  0  0  0  0  7
    4.7594   16.0216    4.3689 H   0  0  0  0  0  0  0  0  0  8
    3.5449   17.0279    6.0439 H   0  0  0  0  0  0  0  0  0  9
    2.2411   15.3797    8.7687 H   0  0  0  0  0  0  0  0  0 10
    2.3131   17.2370    8.1980 N   0  0  0  0  0  0  0  0  0 11
    1.5351   17.5734    9.1862 C   0  0  0  0  0  0  0  0  0 12
    1.1893   16.9230    9.7529 H   0  0  0  0  0  0  0  0  0 13
    1.2149   18.9618    9.3921 C   0  0  0  0  0  0  0  0  0 14
    1.6019   19.4869    8.6884 H   0  0  0  0  0  0  0  0  0 15
    1.5677   19.2486   10.2381 H   0  0  0  0  0  0  0  0  0 16
    0.2616   19.0744    9.3884 H   0  0  0  0  0  0  0  0  0 17
    5.4649   13.5992    4.0798 N   0  3  0  0  0  0  0  0  0 18
    5.6801   12.3781    4.1410 O   0  0  0  0  0  0  0  0  0 19
    5.8840   14.2756    3.1717 O   0  5  0  0  0  0  0  0  0 20
    4.2444   13.4237    6.1477 C   0  0  0  0  0  0  0  0  0 21
    4.4244   12.5118    6.1679 H   0  0  0  0  0  0  0  0  0 22
  2  1  2  0  0  0
  3  2  1  0  0  0
  4  1  1  0  0  0
  5  1  1  0  0  0
  6  5  2  0  0  0
  7  6  1  0  0  0
  8  6  1  0  0  0
  9  5  1  0  0  0
 10  4  1  0  0  0
 11  4  1  0  0  0
 12 11  2  0  0  0
 13 12  1  0  0  0
 14 12  1  0  0  0
 15 14  1  0  0  0
 16 14  1  0  0  0
 17 14  1  0  0  0
 18  7  1  0  0  0
 19 18  2  0  0  0
 20 18  1  0  0  0
 21  7  2  0  0  0
 21  2  1  0  0  0
 22 21  1  0  0  0
M  END
