QIKDET
  MatStudio         3D                             0

 18 18  0  0  0  0  0  0  0  0999 V2000
   -0.8114    1.9062    6.0716 C   0  0  0  0  0  0  0  0  0  1
    0.0756    2.4823    5.2157 N   0  0  0  0  0  0  0  0  0  2
    0.4448    3.2325    5.4190 H   0  0  0  0  0  0  0  0  0  3
   -1.1414    2.5053    7.2807 C   0  0  0  0  0  0  0  0  0  4
   -1.9962    1.8738    8.1406 C   0  0  0  0  0  0  0  0  0  5
   -2.3370    2.5474    9.3999 N   0  3  0  0  0  0  0  0  0  6
   -1.9489    3.6921    9.5551 O   0  5  0  0  0  0  0  0  0  7
   -0.7811    3.3334    7.5044 H   0  0  0  0  0  0  0  0  0  8
   -2.5635    0.6424    7.8903 C   0  0  0  0  0  0  0  0  0  9
   -2.2365    0.0870    6.6809 C   0  0  0  0  0  0  0  0  0 10
   -3.1270    0.2200    8.4980 H   0  0  0  0  0  0  0  0  0 11
   -3.0267    1.9538   10.2089 O   0  0  0  0  0  0  0  0  0 12
   -2.8342   -1.2099    6.3441 N   0  3  0  0  0  0  0  0  0 13
   -2.5055   -1.7459    5.2990 O   0  0  0  0  0  0  0  0  0 14
   -3.6346   -1.6837    7.1231 O   0  5  0  0  0  0  0  0  0 15
   -1.3872    0.6712    5.7715 C   0  0  0  0  0  0  0  0  0 16
   -1.1994    0.2480    4.9657 H   0  0  0  0  0  0  0  0  0 17
    0.2672    2.0962    4.4712 H   0  0  0  0  0  0  0  0  0 18
  2  1  1  0  0  0
  3  2  1  0  0  0
  4  1  1  0  0  0
  5  4  2  0  0  0
  6  5  1  0  0  0
  7  6  1  0  0  0
  8  4  1  0  0  0
  9  5  1  0  0  0
 10  9  2  0  0  0
 11  9  1  0  0  0
 12  6  2  0  0  0
 13 10  1  0  0  0
 14 13  2  0  0  0
 15 13  1  0  0  0
 16 10  1  0  0  0
 16  1  2  0  0  0
 17 16  1  0  0  0
 18  2  1  0  0  0
M  END
