QOYJOD06
  MatStudio         3D                             0

 11 11  0  0  0  0  0  0  0  0999 V2000
    1.5639   -0.7328   16.0512 N   0  0  0  0  0  0  0  0  0  1
    2.5096   -0.2946   15.3029 C   0  0  0  0  0  0  0  0  0  2
    3.7439   -0.7336   15.6215 N   0  0  0  0  0  0  0  0  0  3
    4.4838   -0.5363   15.2293 H   0  0  0  0  0  0  0  0  0  4
    2.2561    0.6089   14.1928 N   0  3  0  0  0  0  0  0  0  5
    2.2247   -1.5286   16.9314 N   0  0  0  0  0  0  0  0  0  6
    3.2221    0.9406   13.5310 O   0  5  0  0  0  0  0  0  0  7
    1.1014    0.9436   14.0069 O   0  0  0  0  0  0  0  0  0  8
    3.5720   -1.5642   16.7063 C   0  0  0  0  0  0  0  0  0  9
    4.4326   -2.1817   17.3114 O   0  0  0  0  0  0  0  0  0 10
    1.8362   -1.9644   17.5630 H   0  0  0  0  0  0  0  0  0 11
  1  2  2  0  0  0
  1  6  1  0  0  0
  2  3  1  0  0  0
  2  5  1  0  0  0
  3  4  1  0  0  0
  3  9  1  0  0  0
  5  7  1  0  0  0
  5  8  2  0  0  0
  6  9  1  0  0  0
  6 11  1  0  0  0
  9 10  2  0  0  0
M  END
