QUZNUV
  MatStudio         3D                             0

 24 24  0  0  0  0  0  0  0  0999 V2000
    2.3754   12.7617    5.0457 O   0  0  0  0  0  0  0  0  0  1
    2.5591   11.6225    5.4047 N   0  3  0  0  0  0  0  0  0  2
    2.0335   10.6698    4.8650 O   0  5  0  0  0  0  0  0  0  3
    3.4507   11.3865    6.5424 C   0  0  0  0  0  0  0  0  0  4
    3.9485   12.4615    7.2340 C   0  0  0  0  0  0  0  0  0  5
    4.7843   12.2198    8.3085 C   0  0  0  0  0  0  0  0  0  6
    5.1261   12.9565    8.7459 H   0  0  0  0  0  0  0  0  0  7
    3.6737   13.3169    7.0480 H   0  0  0  0  0  0  0  0  0  8
    5.1172   10.9306    8.6789 C   0  0  0  0  0  0  0  0  0  9
    4.5921    9.8745    7.9624 C   0  0  0  0  0  0  0  0  0 10
    4.8357    8.9692    8.2130 H   0  0  0  0  0  0  0  0  0 11
    3.7483   10.0905    6.8895 C   0  0  0  0  0  0  0  0  0 12
    3.3832    9.3826    6.3729 H   0  0  0  0  0  0  0  0  0 13
    5.9771   10.6866    9.8958 C   0  0  0  0  0  0  0  0  0 14
    6.6814   11.3312    9.9461 H   0  0  0  0  0  0  0  0  0 15
    6.3596    9.7713    9.8780 H   0  0  0  0  0  0  0  0  0 16
    5.1324   10.7792   11.1341 C   0  0  0  0  0  0  0  0  0 17
    4.6748   11.6952   11.1654 H   0  0  0  0  0  0  0  0  0 18
    5.8971   10.6339   12.3626 N   0  0  0  0  0  0  0  0  0 19
    4.4066   10.1334   11.1370 H   0  0  0  0  0  0  0  0  0 20
    6.6591   10.6617   12.3406 H   0  0  0  0  0  0  0  0  0 21
    5.2973   10.5493   13.5207 C   0  0  0  0  0  0  0  0  0 22
    4.0884   10.5486   13.6695 O   0  0  0  0  0  0  0  0  0 23
    5.9083   10.4691   14.2654 H   0  0  0  0  0  0  0  0  0 24
  2  1  2  0  0  0
  3  2  1  0  0  0
  4  2  1  0  0  0
  5  4  1  0  0  0
  6  5  2  0  0  0
  7  6  1  0  0  0
  8  5  1  0  0  0
  9  6  1  0  0  0
 10  9  2  0  0  0
 11 10  1  0  0  0
 12  4  2  0  0  0
 12 10  1  0  0  0
 13 12  1  0  0  0
 14  9  1  0  0  0
 15 14  1  0  0  0
 16 14  1  0  0  0
 17 14  1  0  0  0
 18 17  1  0  0  0
 19 17  1  0  0  0
 20 17  1  0  0  0
 21 19  1  0  0  0
 22 19  1  0  0  0
 23 22  2  0  0  0
 24 22  1  0  0  0
M  END
