RIRMAH
  MatStudio         3D                             0

 18 18  0  0  0  0  0  0  0  0999 V2000
    1.4382    5.0875    0.1293 C   0  0  0  0  0  0  0  0  0  1
    1.3074    4.7196   -1.2578 N   0  3  0  0  0  0  0  0  0  2
    0.7744    3.6415   -1.5502 O   0  0  0  0  0  0  0  0  0  3
    2.0269    6.3007    0.4542 C   0  0  0  0  0  0  0  0  0  4
    2.0971    6.6717    1.7845 C   0  0  0  0  0  0  0  0  0  5
    1.5991    5.8307    2.7941 C   0  0  0  0  0  0  0  0  0  6
    1.6859    6.2058    4.1057 N   0  0  0  0  0  0  0  0  0  7
    1.3803    5.6895    4.7219 H   0  0  0  0  0  0  0  0  0  8
    1.0003    4.5846    2.4379 C   0  0  0  0  0  0  0  0  0  9
    1.7216    5.5070   -2.1301 O   0  5  0  0  0  0  0  0  0 10
    0.9367    4.2269    1.1081 C   0  0  0  0  0  0  0  0  0 11
    0.5601    3.4126    0.8628 H   0  0  0  0  0  0  0  0  0 12
    2.4791    7.4880    2.0143 H   0  0  0  0  0  0  0  0  0 13
    0.5233    3.7146    3.4564 N   0  0  0  0  0  0  0  0  0 14
    2.3678    6.8552   -0.2109 H   0  0  0  0  0  0  0  0  0 15
    0.1880    2.9509    3.2471 H   0  0  0  0  0  0  0  0  0 16
    0.5699    3.9527    4.2810 H   0  0  0  0  0  0  0  0  0 17
    2.0464    6.9583    4.3156 H   0  0  0  0  0  0  0  0  0 18
  2  1  1  0  0  0
  3  2  2  0  0  0
  4  1  2  0  0  0
  5  4  1  0  0  0
  6  5  2  0  0  0
  7  6  1  0  0  0
  8  7  1  0  0  0
  9  6  1  0  0  0
 10  2  1  0  0  0
 11  1  1  0  0  0
 11  9  2  0  0  0
 12 11  1  0  0  0
 13  5  1  0  0  0
 14  9  1  0  0  0
 15  4  1  0  0  0
 16 14  1  0  0  0
 17 14  1  0  0  0
 18  7  1  0  0  0
M  END
