SAQZAK
  MatStudio         3D                             0

 14 14  0  0  0  0  0  0  0  0999 V2000
    6.3519    0.4894   -1.9423 N   0  0  0  0  0  0  0  0  0  1
    5.8612    1.4591   -2.8715 C   0  0  0  0  0  0  0  0  0  2
    5.0009    1.2107   -3.1929 H   0  0  0  0  0  0  0  0  0  3
    6.5297    1.5988   -3.5693 H   0  0  0  0  0  0  0  0  0  4
    5.6684    2.7797   -2.1807 N   0  3  0  0  0  0  0  0  0  5
    5.3878    3.7098   -2.9181 O   0  5  0  0  0  0  0  0  0  6
    7.6444    0.4012   -1.6410 N   0  0  0  0  0  0  0  0  0  7
    5.8076    2.8415   -0.9871 O   0  0  0  0  0  0  0  0  0  8
    5.5839   -0.3617   -1.2818 N   0  0  0  0  0  0  0  0  0  9
    6.4905   -0.9787   -0.5653 C   0  0  0  0  0  0  0  0  0 10
    6.1696   -2.0300    0.3671 N   0  3  0  0  0  0  0  0  0 11
    4.9993   -2.3383    0.4841 O   0  5  0  0  0  0  0  0  0 12
    7.1049   -2.5270    0.9668 O   0  0  0  0  0  0  0  0  0 13
    7.7434   -0.5489   -0.7567 N   0  0  0  0  0  0  0  0  0 14
  1  2  1  0  0  0
  1  7  1  0  0  0
  1  9  1  0  0  0
  2  3  1  0  0  0
  2  4  1  0  0  0
  2  5  1  0  0  0
  5  6  1  0  0  0
  5  8  2  0  0  0
  7 14  2  0  0  0
  9 10  2  0  0  0
 10 11  1  0  0  0
 10 14  1  0  0  0
 11 12  1  0  0  0
 11 13  2  0  0  0
M  END
