SOJGED01
  MatStudio         3D                             0

 15 15  0  0  0  0  0  0  0  0999 V2000
    0.1632    2.5658    2.4784 O   0  0  0  0  0  0  0  0  0  1
    0.8351    3.2164    3.4457 C   0  0  0  0  0  0  0  0  0  2
    0.9834    1.5209    2.1243 C   0  0  0  0  0  0  0  0  0  3
    2.1220    1.5412    2.8726 C   0  0  0  0  0  0  0  0  0  4
    2.0185    2.6543    3.7389 C   0  0  0  0  0  0  0  0  0  5
    0.2123    4.3723    3.9976 N   0  3  0  0  0  0  0  0  0  6
    2.7785    0.9407    2.8073 H   0  0  0  0  0  0  0  0  0  7
    0.4229    0.6461    1.1142 C   0  0  0  0  0  0  0  0  0  8
   -0.8762    4.7193    3.5621 O   0  0  0  0  0  0  0  0  0  9
    0.9861   -0.3374    0.5356 N   0  0  0  0  0  0  0  0  0 10
    2.2868   -0.5323    0.9804 O   0  0  0  0  0  0  0  0  0 11
    2.6238   -1.1379    0.4686 H   0  0  0  0  0  0  0  0  0 12
    0.8282    4.9497    4.8801 O   0  5  0  0  0  0  0  0  0 13
   -0.4746    0.7943    0.9032 H   0  0  0  0  0  0  0  0  0 14
    2.5812    2.9573    4.3911 H   0  0  0  0  0  0  0  0  0 15
  2  1  1  0  0  0
  3  1  1  0  0  0
  4  3  2  0  0  0
  5  2  2  0  0  0
  5  4  1  0  0  0
  6  2  1  0  0  0
  7  4  1  0  0  0
  8  3  1  0  0  0
  9  6  2  0  0  0
 10  8  2  0  0  0
 11 10  1  0  0  0
 12 11  1  0  0  0
 13  6  1  0  0  0
 14  8  1  0  0  0
 15  5  1  0  0  0
M  END
