SOXNEA
  MatStudio         3D                             0

 19 19  0  0  0  0  0  0  0  0999 V2000
    1.6994   -0.0366    7.1497 O   0  0  0  0  0  0  0  0  0  1
    1.6824    0.2973    5.9694 C   0  0  0  0  0  0  0  0  0  2
    1.5634    1.7380    5.5848 C   0  0  0  0  0  0  0  0  0  3
    1.5604    2.6735    6.6105 C   0  0  0  0  0  0  0  0  0  4
    1.6085    2.4020    7.4993 H   0  0  0  0  0  0  0  0  0  5
    1.4730    2.1718    4.2647 C   0  0  0  0  0  0  0  0  0  6
    1.4639    1.5491    3.5738 H   0  0  0  0  0  0  0  0  0  7
    1.4857    4.0088    6.2893 C   0  0  0  0  0  0  0  0  0  8
    1.4920    4.9844    7.3787 N   0  3  0  0  0  0  0  0  0  9
    1.4282    6.1660    7.0799 O   0  5  0  0  0  0  0  0  0 10
    1.4112    4.4571    4.9853 C   0  0  0  0  0  0  0  0  0 11
    1.3718    5.3665    4.7940 H   0  0  0  0  0  0  0  0  0 12
    1.3962    3.5166    3.9733 C   0  0  0  0  0  0  0  0  0 13
    1.3334    3.7933    3.0877 H   0  0  0  0  0  0  0  0  0 14
    1.5429    4.5840    8.5346 O   0  0  0  0  0  0  0  0  0 15
    1.7784   -0.6639    4.9205 C   0  0  0  0  0  0  0  0  0 16
    1.7698   -0.4252    4.0214 H   0  0  0  0  0  0  0  0  0 17
    1.8806   -1.9175    5.3192 N   0  3  0  0  0  0  0  0  0 18
    1.9589   -2.9487    5.7224 N   0  5  0  0  0  0  0  0  0 19
  2  1  2  0  0  0
  3  2  1  0  0  0
  4  3  2  0  0  0
  5  4  1  0  0  0
  6  3  1  0  0  0
  7  6  1  0  0  0
  8  4  1  0  0  0
  9  8  1  0  0  0
 10  9  1  0  0  0
 11  8  2  0  0  0
 12 11  1  0  0  0
 13  6  2  0  0  0
 13 11  1  0  0  0
 14 13  1  0  0  0
 15  9  2  0  0  0
 16  2  1  0  0  0
 17 16  1  0  0  0
 18 16  2  0  0  0
 19 18  2  0  0  0
M  END
