TAFTOJ
  MatStudio         3D                             0

 19 19  0  0  0  0  0  0  0  0999 V2000
    0.7309    1.3564    4.9079 N   0  0  0  0  0  0  0  0  0  1
    1.4443    1.1028    5.9931 C   0  0  0  0  0  0  0  0  0  2
    1.0737    2.3857    4.1364 C   0  0  0  0  0  0  0  0  0  3
    0.3596    2.6633    3.0715 O   0  0  0  0  0  0  0  0  0  4
   -0.8654    1.9244    2.8553 C   0  0  0  0  0  0  0  0  0  5
   -1.5430    2.0714    3.6835 H   0  0  0  0  0  0  0  0  0  6
    2.5238    1.8803    6.3699 C   0  0  0  0  0  0  0  0  0  7
    2.9134    2.9463    5.5884 C   0  0  0  0  0  0  0  0  0  8
    3.7518    3.5970    5.7895 H   0  0  0  0  0  0  0  0  0  9
    3.2686    1.5347    7.5691 N   0  3  0  0  0  0  0  0  0 10
    4.2715    2.1817    7.8301 O   0  0  0  0  0  0  0  0  0 11
    2.8688    0.6249    8.2755 O   0  5  0  0  0  0  0  0  0 12
    1.2316    0.2996    6.6826 H   0  0  0  0  0  0  0  0  0 13
    2.1905    3.1908    4.4572 C   0  0  0  0  0  0  0  0  0 14
    2.6101    4.3175    3.6213 N   0  3  0  0  0  0  0  0  0 15
    3.3615    5.1152    4.1121 O   0  0  0  0  0  0  0  0  0 16
    2.1869    4.4094    2.4855 O   0  5  0  0  0  0  0  0  0 17
   -1.2893    2.3582    1.9621 H   0  0  0  0  0  0  0  0  0 18
   -0.7068    0.8675    2.7020 H   0  0  0  0  0  0  0  0  0 19
  2  1  1  0  0  0
  3  1  2  0  0  0
  4  3  1  0  0  0
  5  4  1  0  0  0
  6  5  1  0  0  0
  7  2  2  0  0  0
  8  7  1  0  0  0
  9  8  1  0  0  0
 10  7  1  0  0  0
 11 10  2  0  0  0
 12 10  1  0  0  0
 13  2  1  0  0  0
 14  3  1  0  0  0
 14  8  2  0  0  0
 15 14  1  0  0  0
 16 15  2  0  0  0
 17 15  1  0  0  0
 18  5  1  0  0  0
 19  5  1  0  0  0
M  END
