TEHGUI
  MatStudio         3D                             0

 19 19  0  0  0  0  0  0  0  0999 V2000
    1.3207    1.7268   13.6002 O   0  0  0  0  0  0  0  0  0  1
    1.4547    1.1706   12.5079 N   0  3  0  0  0  0  0  0  0  2
    1.5484    1.9881   11.3339 C   0  0  0  0  0  0  0  0  0  3
    1.6525    1.4064   10.0733 C   0  0  0  0  0  0  0  0  0  4
    1.7670    2.3194    9.0155 C   0  0  0  0  0  0  0  0  0  5
    1.7709    3.6503    9.1939 C   0  0  0  0  0  0  0  0  0  6
    1.6590    4.2147   10.4776 C   0  0  0  0  0  0  0  0  0  7
    1.5146   -0.0592   12.4226 O   0  5  0  0  0  0  0  0  0  8
    1.5393    3.3626   11.5193 C   0  0  0  0  0  0  0  0  0  9
    1.6929    5.7030   10.6487 C   0  0  0  0  0  0  0  0  0 10
    2.5152    6.1727   10.2666 H   0  0  0  0  0  0  0  0  0 11
    1.6955    0.0765    9.8239 N   0  0  0  0  0  0  0  0  0 12
    1.5692   -0.1320    9.0295 H   0  0  0  0  0  0  0  0  0 13
    1.5966    5.9443   11.5733 H   0  0  0  0  0  0  0  0  0 14
    0.8978    6.2201   10.4213 H   0  0  0  0  0  0  0  0  0 15
    1.9141    4.3257    8.4471 H   0  0  0  0  0  0  0  0  0 16
    1.5927   -0.5243   10.5719 H   0  0  0  0  0  0  0  0  0 17
    1.7696    1.9153    8.1832 H   0  0  0  0  0  0  0  0  0 18
    1.4847    3.6594   12.4349 H   0  0  0  0  0  0  0  0  0 19
  2  1  2  0  0  0
  3  2  1  0  0  0
  4  3  2  0  0  0
  5  4  1  0  0  0
  6  5  2  0  0  0
  7  6  1  0  0  0
  8  2  1  0  0  0
  9  3  1  0  0  0
  9  7  2  0  0  0
 10  7  1  0  0  0
 11 10  1  0  0  0
 12  4  1  0  0  0
 13 12  1  0  0  0
 14 10  1  0  0  0
 15 10  1  0  0  0
 16  6  1  0  0  0
 17 12  1  0  0  0
 18  5  1  0  0  0
 19  9  1  0  0  0
M  END
