UFUXOI
  MatStudio         3D                             0

 15 15  0  0  0  0  0  0  0  0999 V2000
    3.3987    1.4681    4.6546 N   0  0  0  0  0  0  0  0  0  1
    2.4715    2.4654    4.4270 C   0  0  0  0  0  0  0  0  0  2
    3.4762    1.0366    5.3937 H   0  0  0  0  0  0  0  0  0  3
    4.1534    1.2623    3.5856 N   0  0  0  0  0  0  0  0  0  4
    1.5467    2.8487    5.4026 N   0  3  0  0  0  0  0  0  0  5
    2.6218    2.9376    3.1279 C   0  0  0  0  0  0  0  0  0  6
    1.9328    3.8905    2.4993 N   0  0  0  0  0  0  0  0  0  7
    1.2972    4.3016    2.9066 H   0  0  0  0  0  0  0  0  0  8
    3.6898    2.1385    2.6749 C   0  0  0  0  0  0  0  0  0  9
    4.2942    2.1735    1.3862 N   0  3  0  0  0  0  0  0  0 10
    5.1827    1.3777    1.1180 O   0  0  0  0  0  0  0  0  0 11
    3.8609    3.0161    0.6124 O   0  5  0  0  0  0  0  0  0 12
    2.1237    4.0934    1.6860 H   0  0  0  0  0  0  0  0  0 13
    1.5070    2.2185    6.4629 O   0  5  0  0  0  0  0  0  0 14
    0.8194    3.8025    5.1320 O   0  0  0  0  0  0  0  0  0 15
  2  1  1  0  0  0
  3  1  1  0  0  0
  4  1  1  0  0  0
  5  2  1  0  0  0
  6  2  2  0  0  0
  7  6  1  0  0  0
  8  7  1  0  0  0
  9  6  1  0  0  0
  9  4  2  0  0  0
 10  9  1  0  0  0
 11 10  2  0  0  0
 12 10  1  0  0  0
 13  7  1  0  0  0
 14  5  1  0  0  0
 15  5  2  0  0  0
M  END
