VIKWAN
  MatStudio         3D                             0

 27 27  0  0  0  0  0  0  0  0999 V2000
    6.7663    2.4738    8.6702 C   0  0  0  0  0  0  0  0  0  1
    7.9622    2.0062    9.4721 C   0  0  0  0  0  0  0  0  0  2
    7.0389    3.0867   10.0241 C   0  0  0  0  0  0  0  0  0  3
    7.5294    4.5210   10.0951 C   0  0  0  0  0  0  0  0  0  4
    6.9245    3.2254    7.3578 C   0  0  0  0  0  0  0  0  0  5
    6.1435    2.7486   11.1961 C   0  0  0  0  0  0  0  0  0  6
    7.9930    0.6445   10.1258 C   0  0  0  0  0  0  0  0  0  7
    9.3252    2.4067    8.9473 C   0  0  0  0  0  0  0  0  0  8
    5.5665    1.5964    8.5186 N   0  3  0  0  0  0  0  0  0  9
    5.6938    0.4489    8.2382 O   0  5  0  0  0  0  0  0  0 10
    7.4976    2.5269    6.3901 N   0  0  0  0  0  0  0  0  0 11
    4.4780    2.0929    8.6939 O   0  0  0  0  0  0  0  0  0 12
    6.5196    4.3757    7.2267 O   0  0  0  0  0  0  0  0  0 13
    6.7355    2.7383   12.0490 H   0  0  0  0  0  0  0  0  0 14
    5.8003    1.8628   11.1942 H   0  0  0  0  0  0  0  0  0 15
    5.4819    3.4276   11.2608 H   0  0  0  0  0  0  0  0  0 16
    8.0587    4.7501    9.3221 H   0  0  0  0  0  0  0  0  0 17
    6.7454    5.1320   10.1910 H   0  0  0  0  0  0  0  0  0 18
    8.0089    4.5918   10.9060 H   0  0  0  0  0  0  0  0  0 19
    8.3870    0.0279    9.5020 H   0  0  0  0  0  0  0  0  0 20
    7.0538    0.3074   10.3629 H   0  0  0  0  0  0  0  0  0 21
    8.5462    0.6986   10.9078 H   0  0  0  0  0  0  0  0  0 22
    9.3123    3.2692    8.4907 H   0  0  0  0  0  0  0  0  0 23
    9.6903    1.6858    8.3350 H   0  0  0  0  0  0  0  0  0 24
    9.9391    2.4868    9.7514 H   0  0  0  0  0  0  0  0  0 25
    7.7304    1.6858    6.5116 H   0  0  0  0  0  0  0  0  0 26
    7.7005    2.8873    5.6587 H   0  0  0  0  0  0  0  0  0 27
  2  1  1  0  0  0
  3  2  1  0  0  0
  3  1  1  0  0  0
  4  3  1  0  0  0
  5  1  1  0  0  0
  6  3  1  0  0  0
  7  2  1  0  0  0
  8  2  1  0  0  0
  9  1  1  0  0  0
 10  9  1  0  0  0
 11  5  1  0  0  0
 12  9  2  0  0  0
 13  5  2  0  0  0
 14  6  1  0  0  0
 15  6  1  0  0  0
 16  6  1  0  0  0
 17  4  1  0  0  0
 18  4  1  0  0  0
 19  4  1  0  0  0
 20  7  1  0  0  0
 21  7  1  0  0  0
 22  7  1  0  0  0
 23  8  1  0  0  0
 24  8  1  0  0  0
 25  8  1  0  0  0
 26 11  1  0  0  0
 27 11  1  0  0  0
M  END
