VUXLUV
  MatStudio         3D                             0

 25 25  0  0  0  0  0  0  0  0999 V2000
   -0.5819    1.5504    6.9293 N   0  0  0  0  0  0  0  0  0  1
   -0.7812    0.2060    6.9353 C   0  0  0  0  0  0  0  0  0  2
   -1.6242   -0.1981    7.8483 N   0  0  0  0  0  0  0  0  0  3
   -2.0040    0.9489    8.4861 C   0  0  0  0  0  0  0  0  0  4
   -1.3749    2.0158    7.9332 C   0  0  0  0  0  0  0  0  0  5
   -0.1229   -0.7107    6.0502 N   0  3  0  0  0  0  0  0  0  6
    0.7715   -0.2877    5.3300 O   0  0  0  0  0  0  0  0  0  7
   -0.4861   -1.8759    6.0782 O   0  5  0  0  0  0  0  0  0  8
    0.2680    2.4262    6.1176 C   0  0  0  0  0  0  0  0  0  9
    0.3264    2.0520    5.1689 H   0  0  0  0  0  0  0  0  0 10
    1.6790    2.5544    6.6766 C   0  0  0  0  0  0  0  0  0 11
    2.1526    1.6667    6.5090 H   0  0  0  0  0  0  0  0  0 12
   -0.1319    3.3413    6.0599 H   0  0  0  0  0  0  0  0  0 13
    1.6561    2.8437    8.0669 O   0  0  0  0  0  0  0  0  0 14
    1.6943    2.0284    8.5745 H   0  0  0  0  0  0  0  0  0 15
   -1.4721    2.9954    8.2176 H   0  0  0  0  0  0  0  0  0 16
    2.3991    3.7124    6.0273 C   0  0  0  0  0  0  0  0  0 17
    3.3123    3.8209    6.4164 H   0  0  0  0  0  0  0  0  0 18
    1.8749    4.5600    6.2029 H   0  0  0  0  0  0  0  0  0 19
    2.4908    3.4931    4.6421 O   0  0  0  0  0  0  0  0  0 20
    3.2206    4.5175    4.0001 C   0  0  0  0  0  0  0  0  0 21
    3.2775    4.3398    2.9989 H   0  0  0  0  0  0  0  0  0 22
    2.7706    5.4091    4.1172 H   0  0  0  0  0  0  0  0  0 23
    4.1594    4.5757    4.3537 H   0  0  0  0  0  0  0  0  0 24
   -2.6595    0.9828    9.2670 H   0  0  0  0  0  0  0  0  0 25
  2  1  1  0  0  0
  3  2  2  0  0  0
  4  3  1  0  0  0
  5  4  2  0  0  0
  5  1  1  0  0  0
  6  2  1  0  0  0
  7  6  2  0  0  0
  8  6  1  0  0  0
  9  1  1  0  0  0
 10  9  1  0  0  0
 11  9  1  0  0  0
 12 11  1  0  0  0
 13  9  1  0  0  0
 14 11  1  0  0  0
 15 14  1  0  0  0
 16  5  1  0  0  0
 17 11  1  0  0  0
 18 17  1  0  0  0
 19 17  1  0  0  0
 20 17  1  0  0  0
 21 20  1  0  0  0
 22 21  1  0  0  0
 23 21  1  0  0  0
 24 21  1  0  0  0
 25  4  1  0  0  0
M  END
