VUYKUV
  MatStudio         3D                             0

 25 25  0  0  0  0  0  0  0  0999 V2000
    2.6016    5.9613   -1.0694 C   0  0  0  0  0  0  0  0  0  1
    2.7354    5.0168   -0.8252 H   0  0  0  0  0  0  0  0  0  2
    1.5923    6.1434   -1.9197 N   0  0  0  0  0  0  0  0  0  3
    0.8646    5.0041   -2.4576 C   0  0  0  0  0  0  0  0  0  4
    1.2239    7.4632   -2.3670 C   0  0  0  0  0  0  0  0  0  5
    3.3065    6.9241   -0.5827 N   0  0  0  0  0  0  0  0  0  6
    4.3607    6.5960    0.2614 C   0  0  0  0  0  0  0  0  0  7
    4.7760    7.5670    1.1768 C   0  0  0  0  0  0  0  0  0  8
    5.8103    7.3259    2.0519 C   0  0  0  0  0  0  0  0  0  9
    6.4582    6.1221    2.0124 C   0  0  0  0  0  0  0  0  0 10
    5.0655    5.3919    0.2352 C   0  0  0  0  0  0  0  0  0 11
    7.5513    5.8527    2.9365 N   0  3  0  0  0  0  0  0  0 12
    6.0998    5.1486    1.1024 C   0  0  0  0  0  0  0  0  0 13
    8.2272    4.8416    2.7763 O   0  5  0  0  0  0  0  0  0 14
    7.7540    6.6623    3.8394 O   0  0  0  0  0  0  0  0  0 15
    6.5590    4.3284    1.1401 H   0  0  0  0  0  0  0  0  0 16
    6.1197    8.0052    2.6548 H   0  0  0  0  0  0  0  0  0 17
    4.3128    8.4130    1.1535 H   0  0  0  0  0  0  0  0  0 18
   -0.0599    5.2596   -2.4607 H   0  0  0  0  0  0  0  0  0 19
    4.8119    4.7359   -0.3799 H   0  0  0  0  0  0  0  0  0 20
    1.7571    8.2257   -1.9615 H   0  0  0  0  0  0  0  0  0 21
    1.4476    7.6386   -3.1445 H   0  0  0  0  0  0  0  0  0 22
    1.0383    4.9312   -3.3598 H   0  0  0  0  0  0  0  0  0 23
    1.0482    4.1921   -2.0304 H   0  0  0  0  0  0  0  0  0 24
    0.3594    7.6026   -2.2668 H   0  0  0  0  0  0  0  0  0 25
  2  1  1  0  0  0
  3  1  1  0  0  0
  4  3  1  0  0  0
  5  3  1  0  0  0
  6  1  2  0  0  0
  7  6  1  0  0  0
  8  7  2  0  0  0
  9  8  1  0  0  0
 10  9  2  0  0  0
 11  7  1  0  0  0
 12 10  1  0  0  0
 13 11  2  0  0  0
 13 10  1  0  0  0
 14 12  1  0  0  0
 15 12  2  0  0  0
 16 13  1  0  0  0
 17  9  1  0  0  0
 18  8  1  0  0  0
 19  4  1  0  0  0
 20 11  1  0  0  0
 21  5  1  0  0  0
 22  5  1  0  0  0
 23  4  1  0  0  0
 24  4  1  0  0  0
 25  5  1  0  0  0
M  END
