WIGTOX
  MatStudio         3D                             0

 22 22  0  0  0  0  0  0  0  0999 V2000
   -0.7644    3.6690    5.0925 O   0  0  0  0  0  0  0  0  0  1
   -0.1589    4.6726    4.7213 N   0  3  0  0  0  0  0  0  0  2
    0.7366    4.6387    3.8857 O   0  5  0  0  0  0  0  0  0  3
   -0.5178    5.8979    5.3045 C   0  0  0  0  0  0  0  0  0  4
   -1.3129    6.1047    6.3789 C   0  0  0  0  0  0  0  0  0  5
   -1.3228    7.4164    6.6992 N   0  0  0  0  0  0  0  0  0  6
   -0.0038    7.1237    4.9305 N   0  0  0  0  0  0  0  0  0  7
    0.7116    7.4614    3.7068 C   0  0  0  0  0  0  0  0  0  8
    1.5279    6.9399    3.6615 H   0  0  0  0  0  0  0  0  0  9
    0.9592    8.3990    3.7319 H   0  0  0  0  0  0  0  0  0 10
   -0.1108    7.2011    2.4669 C   0  0  0  0  0  0  0  0  0 11
   -1.1624    6.6162    2.5216 O   0  0  0  0  0  0  0  0  0 12
   -1.7830    5.4411    6.8299 H   0  0  0  0  0  0  0  0  0 13
   -0.5362    8.0099    5.8115 C   0  0  0  0  0  0  0  0  0 14
   -0.2202    9.4570    5.8190 C   0  0  0  0  0  0  0  0  0 15
   -0.5725    9.8569    6.6173 H   0  0  0  0  0  0  0  0  0 16
   -0.6154    9.8743    5.0509 H   0  0  0  0  0  0  0  0  0 17
    0.7319    9.5768    5.7938 H   0  0  0  0  0  0  0  0  0 18
    0.4768    7.7024    1.1968 C   0  0  0  0  0  0  0  0  0 19
    0.6253    8.6482    1.2640 H   0  0  0  0  0  0  0  0  0 20
   -0.1273    7.5238    0.4726 H   0  0  0  0  0  0  0  0  0 21
    1.3124    7.2585    1.0342 H   0  0  0  0  0  0  0  0  0 22
  2  1  2  0  0  0
  3  2  1  0  0  0
  4  2  1  0  0  0
  5  4  2  0  0  0
  6  5  1  0  0  0
  7  4  1  0  0  0
  8  7  1  0  0  0
  9  8  1  0  0  0
 10  8  1  0  0  0
 11  8  1  0  0  0
 12 11  2  0  0  0
 13  5  1  0  0  0
 14  6  2  0  0  0
 14  7  1  0  0  0
 15 14  1  0  0  0
 16 15  1  0  0  0
 17 15  1  0  0  0
 18 15  1  0  0  0
 19 11  1  0  0  0
 20 19  1  0  0  0
 21 19  1  0  0  0
 22 19  1  0  0  0
M  END
