WOBLUU
  MatStudio         3D                             0

 15 15  0  0  0  0  0  0  0  0999 V2000
    0.1212    1.7246    0.5223 N   0  0  0  0  0  0  0  0  0  1
    0.9396    1.4156    1.5568 N   0  0  0  0  0  0  0  0  0  2
   -0.4672    2.7848    1.0025 C   0  0  0  0  0  0  0  0  0  3
   -0.1183    3.2018    2.2250 N   0  0  0  0  0  0  0  0  0  4
    1.9171    0.3866    1.4179 C   0  0  0  0  0  0  0  0  0  5
    3.1066    0.9097    0.6514 N   0  3  0  0  0  0  0  0  0  6
    3.9808    0.0980    0.4278 O   0  5  0  0  0  0  0  0  0  7
    3.1282    2.0661    0.3120 O   0  0  0  0  0  0  0  0  0  8
   -1.4595    3.4872    0.2114 N   0  3  0  0  0  0  0  0  0  9
   -1.7254    4.6258    0.5336 O   0  5  0  0  0  0  0  0  0 10
   -1.9568    2.8926   -0.7250 O   0  0  0  0  0  0  0  0  0 11
    0.7813    2.3041    2.5487 C   0  0  0  0  0  0  0  0  0 12
    2.2561    0.1393    2.3051 H   0  0  0  0  0  0  0  0  0 13
    1.5959   -0.3363    0.9182 H   0  0  0  0  0  0  0  0  0 14
    1.2691    2.2191    3.3442 H   0  0  0  0  0  0  0  0  0 15
  2  1  1  0  0  0
  3  1  2  0  0  0
  4  3  1  0  0  0
  5  2  1  0  0  0
  6  5  1  0  0  0
  7  6  1  0  0  0
  8  6  2  0  0  0
  9  3  1  0  0  0
 10  9  1  0  0  0
 11  9  2  0  0  0
 12  4  2  0  0  0
 12  2  1  0  0  0
 13  5  1  0  0  0
 14  5  1  0  0  0
 15 12  1  0  0  0
M  END
