WOQXOR
  MatStudio         3D                             0

 19 19  0  0  0  0  0  0  0  0999 V2000
   -2.4249    4.4505   -1.9000 C   0  0  0  0  0  0  0  0  0  1
   -3.0095    4.4556   -1.1762 H   0  0  0  0  0  0  0  0  0  2
   -1.0476    4.8742   -1.6852 C   0  0  0  0  0  0  0  0  0  3
   -2.8616    4.0750   -3.0269 N   0  0  0  0  0  0  0  0  0  4
   -4.2118    3.6728   -2.9500 O   0  0  0  0  0  0  0  0  0  5
   -4.4291    3.4946   -3.8239 H   0  0  0  0  0  0  0  0  0  6
   -0.1326    5.0465   -2.7356 C   0  0  0  0  0  0  0  0  0  7
   -0.4061    4.8846   -3.6102 H   0  0  0  0  0  0  0  0  0  8
    1.1496    5.4466   -2.4994 C   0  0  0  0  0  0  0  0  0  9
    1.7328    5.5591   -3.2157 H   0  0  0  0  0  0  0  0  0 10
    1.6009    5.6905   -1.2036 C   0  0  0  0  0  0  0  0  0 11
    0.6921    5.5044   -0.1561 C   0  0  0  0  0  0  0  0  0 12
    2.8838    6.0684   -1.0729 O   0  0  0  0  0  0  0  0  0 13
   -0.6186    5.1045   -0.3991 C   0  0  0  0  0  0  0  0  0 14
   -1.2079    4.9933    0.3118 H   0  0  0  0  0  0  0  0  0 15
    1.0913    5.6965    1.2224 N   0  3  0  0  0  0  0  0  0 16
    3.0407    6.2362   -0.2827 H   0  0  0  0  0  0  0  0  0 17
    2.1979    6.1782    1.4522 O   0  0  0  0  0  0  0  0  0 18
    0.3325    5.3728    2.1119 O   0  5  0  0  0  0  0  0  0 19
  2  1  1  0  0  0
  3  1  1  0  0  0
  4  1  2  0  0  0
  5  4  1  0  0  0
  6  5  1  0  0  0
  7  3  2  0  0  0
  8  7  1  0  0  0
  9  7  1  0  0  0
 10  9  1  0  0  0
 11  9  2  0  0  0
 12 11  1  0  0  0
 13 11  1  0  0  0
 14  3  1  0  0  0
 14 12  2  0  0  0
 15 14  1  0  0  0
 16 12  1  0  0  0
 17 13  1  0  0  0
 18 16  2  0  0  0
 19 16  1  0  0  0
M  END
