WUMHES
  MatStudio         3D                             0

 28 29  0  0  0  0  0  0  0  0999 V2000
    0.8749   -1.3669    0.9537 O   0  0  0  0  0  0  0  0  0  1
    0.7515   -0.5096    1.8164 C   0  0  0  0  0  0  0  0  0  2
    1.6306    0.4660    2.0470 N   0  0  0  0  0  0  0  0  0  3
    1.3952    1.5458    3.0068 C   0  0  0  0  0  0  0  0  0  4
    1.9394    2.7183    2.2169 C   0  0  0  0  0  0  0  0  0  5
    2.8029    2.2428    1.0947 C   0  0  0  0  0  0  0  0  0  6
    0.4291    1.6620    3.1246 H   0  0  0  0  0  0  0  0  0  7
    3.6528    2.6918    0.9030 H   0  0  0  0  0  0  0  0  0  8
   -0.0104   -0.5397    2.3483 H   0  0  0  0  0  0  0  0  0  9
    2.7342    0.7425    1.1368 C   0  0  0  0  0  0  0  0  0 10
    2.5566    0.3787    0.2557 H   0  0  0  0  0  0  0  0  0 11
    3.5627    0.3667    1.4720 H   0  0  0  0  0  0  0  0  0 12
    1.5098    2.9236    0.7898 C   0  0  0  0  0  0  0  0  0 13
    2.2128    3.9689    2.9346 N   0  3  0  0  0  0  0  0  0 14
    3.1664    4.6444    2.6083 O   0  5  0  0  0  0  0  0  0 15
    1.4207    4.3060    3.7856 O   0  0  0  0  0  0  0  0  0 16
    0.7801    2.3794    0.4543 H   0  0  0  0  0  0  0  0  0 17
    1.5462    3.8249    0.4312 H   0  0  0  0  0  0  0  0  0 18
    2.0420    1.3212    4.3811 C   0  0  0  0  0  0  0  0  0 19
    1.3301    0.2217    5.1323 C   0  0  0  0  0  0  0  0  0 20
    1.6827    0.1625    6.0232 H   0  0  0  0  0  0  0  0  0 21
    0.3911    0.4175    5.1721 H   0  0  0  0  0  0  0  0  0 22
    1.4634   -0.6142    4.6801 H   0  0  0  0  0  0  0  0  0 23
    3.5221    1.0476    4.3130 C   0  0  0  0  0  0  0  0  0 24
    3.6716    0.1936    3.9014 H   0  0  0  0  0  0  0  0  0 25
    3.9502    1.7325    3.7945 H   0  0  0  0  0  0  0  0  0 26
    3.8877    1.0432    5.2002 H   0  0  0  0  0  0  0  0  0 27
    1.9238    2.1462    4.8952 H   0  0  0  0  0  0  0  0  0 28
  2  1  2  0  0  0
  3  2  1  0  0  0
  4  3  1  0  0  0
  5  4  1  0  0  0
  6  5  1  0  0  0
  7  4  1  0  0  0
  8  6  1  0  0  0
  9  2  1  0  0  0
 10  6  1  0  0  0
 10  3  1  0  0  0
 11 10  1  0  0  0
 12 10  1  0  0  0
 13  6  1  0  0  0
 13  5  1  0  0  0
 14  5  1  0  0  0
 15 14  1  0  0  0
 16 14  2  0  0  0
 17 13  1  0  0  0
 18 13  1  0  0  0
 19  4  1  0  0  0
 20 19  1  0  0  0
 21 20  1  0  0  0
 22 20  1  0  0  0
 23 20  1  0  0  0
 24 19  1  0  0  0
 25 24  1  0  0  0
 26 24  1  0  0  0
 27 24  1  0  0  0
 28 19  1  0  0  0
M  END
