YOVJUP
  MatStudio         3D                             0

 18 18  0  0  0  0  0  0  0  0999 V2000
    7.0862   -2.5852    0.3856 O   0  0  0  0  0  0  0  0  0  1
    7.6894   -1.5322    0.5119 N   0  3  0  0  0  0  0  0  0  2
    7.1005   -0.3062    0.0339 C   0  0  0  0  0  0  0  0  0  3
    5.7204   -0.2844   -0.3182 C   0  0  0  0  0  0  0  0  0  4
    7.8910    0.8441   -0.0939 C   0  0  0  0  0  0  0  0  0  5
    7.2435    1.9841   -0.5228 C   0  0  0  0  0  0  0  0  0  6
    5.8934    1.9442   -0.7859 C   0  0  0  0  0  0  0  0  0  7
    9.3682    0.9252    0.1721 C   0  0  0  0  0  0  0  0  0  8
    9.8174    0.2198   -0.2996 H   0  0  0  0  0  0  0  0  0  9
    9.5293    0.8332    1.1140 H   0  0  0  0  0  0  0  0  0 10
    8.7543   -1.5185    1.0704 O   0  5  0  0  0  0  0  0  0 11
    5.1437    0.8728   -0.7033 N   0  0  0  0  0  0  0  0  0 12
    7.7177    2.7770   -0.6339 H   0  0  0  0  0  0  0  0  0 13
    5.4819    2.7375   -1.0419 H   0  0  0  0  0  0  0  0  0 14
    4.8921   -1.3369   -0.2849 N   0  0  0  0  0  0  0  0  0 15
    5.2173   -2.1102   -0.1835 H   0  0  0  0  0  0  0  0  0 16
    4.0738   -1.1452   -0.5556 H   0  0  0  0  0  0  0  0  0 17
    9.7012    1.7738   -0.1283 H   0  0  0  0  0  0  0  0  0 18
  2  1  2  0  0  0
  3  2  1  0  0  0
  4  3  2  0  0  0
  5  3  1  0  0  0
  6  5  2  0  0  0
  7  6  1  0  0  0
  8  5  1  0  0  0
  9  8  1  0  0  0
 10  8  1  0  0  0
 11  2  1  0  0  0
 12  7  2  0  0  0
 12  4  1  0  0  0
 13  6  1  0  0  0
 14  7  1  0  0  0
 15  4  1  0  0  0
 16 15  1  0  0  0
 17 15  1  0  0  0
 18  8  1  0  0  0
M  END
