YUYCOK
  MatStudio         3D                             0

 15 15  0  0  0  0  0  0  0  0999 V2000
    5.2634    2.2424    2.4631 O   0  0  0  0  0  0  0  0  0  1
    4.1093    2.8893    2.8019 C   0  0  0  0  0  0  0  0  0  2
    3.0776    2.4463    2.0378 C   0  0  0  0  0  0  0  0  0  3
    2.1813    2.7554    2.0637 H   0  0  0  0  0  0  0  0  0  4
    3.5925    1.4657    1.1874 C   0  0  0  0  0  0  0  0  0  5
    3.1130    0.9819    0.6044 H   0  0  0  0  0  0  0  0  0  6
    4.9051    1.3897    1.4829 C   0  0  0  0  0  0  0  0  0  7
    5.9013    0.5088    1.0056 N   0  3  0  0  0  0  0  0  0  8
    5.5759   -0.2716    0.1131 O   0  5  0  0  0  0  0  0  0  9
    7.0148    0.5440    1.5134 O   0  0  0  0  0  0  0  0  0 10
    4.1679    3.9278    3.7994 C   0  0  0  0  0  0  0  0  0 11
    3.4378    4.3634    4.0342 H   0  0  0  0  0  0  0  0  0 12
    5.2711    4.2739    4.3285 N   0  0  0  0  0  0  0  0  0 13
    5.1036    5.3041    5.2350 O   0  0  0  0  0  0  0  0  0 14
    5.9329    5.7420    5.4566 H   0  0  0  0  0  0  0  0  0 15
  2  1  1  0  0  0
  3  2  2  0  0  0
  4  3  1  0  0  0
  5  3  1  0  0  0
  6  5  1  0  0  0
  7  5  2  0  0  0
  7  1  1  0  0  0
  8  7  1  0  0  0
  9  8  1  0  0  0
 10  8  2  0  0  0
 11  2  1  0  0  0
 12 11  1  0  0  0
 13 11  2  0  0  0
 14 13  1  0  0  0
 15 14  1  0  0  0
M  END
