ZZZFYW01
  MatStudio         3D                             0

 16 16  0  0  0  0  0  0  0  0999 V2000
    2.7478   10.1672    0.2753 C   0  0  0  0  0  0  0  0  0  1
    4.0852   10.7680    0.1405 N   0  3  0  0  0  0  0  0  0  2
    2.6505    8.7945    0.2662 C   0  0  0  0  0  0  0  0  0  3
    4.8350   10.2736   -0.6890 O   0  0  0  0  0  0  0  0  0  4
    1.6279   10.9444    0.5173 C   0  0  0  0  0  0  0  0  0  5
    0.4107   10.3541    0.7709 C   0  0  0  0  0  0  0  0  0  6
    0.3170    8.9761    0.7743 C   0  0  0  0  0  0  0  0  0  7
   -0.5190    8.5583    1.0240 H   0  0  0  0  0  0  0  0  0  8
    1.4215    8.2015    0.5141 C   0  0  0  0  0  0  0  0  0  9
    4.3654   11.6879    0.8932 O   0  5  0  0  0  0  0  0  0 10
    1.6677   12.4106    0.4241 N   0  3  0  0  0  0  0  0  0 11
    1.0115   13.0373    1.2442 O   0  0  0  0  0  0  0  0  0 12
    2.3054   12.9075   -0.4925 O   0  5  0  0  0  0  0  0  0 13
   -0.3288   10.9457    0.9988 H   0  0  0  0  0  0  0  0  0 14
    1.3381    7.2608    0.5854 H   0  0  0  0  0  0  0  0  0 15
    3.3944    8.2910    0.1248 H   0  0  0  0  0  0  0  0  0 16
  2  1  1  0  0  0
  3  1  1  0  0  0
  4  2  2  0  0  0
  5  1  2  0  0  0
  6  5  1  0  0  0
  7  6  2  0  0  0
  8  7  1  0  0  0
  9  3  2  0  0  0
  9  7  1  0  0  0
 10  2  1  0  0  0
 11  5  1  0  0  0
 12 11  2  0  0  0
 13 11  1  0  0  0
 14  6  1  0  0  0
 15  9  1  0  0  0
 16  3  1  0  0  0
M  END
