ZZZGVU01
  MatStudio         3D                             0

 19 19  0  0  0  0  0  0  0  0999 V2000
    1.6439    6.0929    9.2747 C   0  0  0  0  0  0  0  0  0  1
    2.1955    7.0140    8.2186 C   0  0  0  0  0  0  0  0  0  2
    1.5774    4.7287    9.0060 C   0  0  0  0  0  0  0  0  0  3
    1.2046    6.4840   10.5476 C   0  0  0  0  0  0  0  0  0  4
    1.2547    7.8921   10.9905 N   0  3  0  0  0  0  0  0  0  5
    0.6912    5.6011   11.4719 C   0  0  0  0  0  0  0  0  0  6
    0.6101    4.2775   11.1176 C   0  0  0  0  0  0  0  0  0  7
    1.0586    3.8172    9.8910 C   0  0  0  0  0  0  0  0  0  8
    0.0164    3.3299   12.0697 N   0  3  0  0  0  0  0  0  0  9
    0.0084    2.1508   11.7773 O   0  0  0  0  0  0  0  0  0 10
    1.1699    8.7635   10.1288 O   0  5  0  0  0  0  0  0  0 11
    1.3740    8.1184   12.1759 O   0  0  0  0  0  0  0  0  0 12
   -0.4660    3.7700   13.0975 O   0  5  0  0  0  0  0  0  0 13
    0.3633    5.9393   12.4439 H   0  0  0  0  0  0  0  0  0 14
    1.0017    2.7689    9.6376 H   0  0  0  0  0  0  0  0  0 15
    1.9512    4.3714    8.0578 H   0  0  0  0  0  0  0  0  0 16
    1.4421    7.7429    7.9588 H   0  0  0  0  0  0  0  0  0 17
    3.0705    7.5781    8.5985 H   0  0  0  0  0  0  0  0  0 18
    2.4941    6.3758    7.4001 H   0  0  0  0  0  0  0  0  0 19
  2  1  1  0  0  0
  3  1  1  0  0  0
  4  1  2  0  0  0
  5  4  1  0  0  0
  6  4  1  0  0  0
  7  6  2  0  0  0
  8  3  2  0  0  0
  8  7  1  0  0  0
  9  7  1  0  0  0
 10  9  2  0  0  0
 11  5  1  0  0  0
 12  5  2  0  0  0
 13  9  1  0  0  0
 14  6  1  0  0  0
 15  8  1  0  0  0
 16  3  1  0  0  0
 17  2  1  0  0  0
 18  2  1  0  0  0
 19  2  1  0  0  0
M  END
